                                  MODFLOW-2005     
      U.S. GEOLOGICAL SURVEY MODULAR FINITE-DIFFERENCE GROUND-WATER FLOW MODEL
                            VERSION 1.12.00 2/3/2017

 LIST FILE: ConcPlanViewPaperTrans.list
                         UNIT    2

 OPENING ConcPlanViewPaperTrans.dis
 FILE TYPE:DIS   UNIT   11   STATUS:OLD    
 FORMAT:FORMATTED              ACCESS:SEQUENTIAL          

 OPENING ConcPlanViewPaperTrans.bas
 FILE TYPE:BAS6   UNIT   13   STATUS:OLD    
 FORMAT:FORMATTED              ACCESS:SEQUENTIAL          

 OPENING ConcPlanViewPaperTrans.lpf
 FILE TYPE:LPF   UNIT   15   STATUS:OLD    
 FORMAT:FORMATTED              ACCESS:SEQUENTIAL          

 OPENING ConcPlanViewPaperTrans.wel
 FILE TYPE:WEL   UNIT   20   STATUS:OLD    
 FORMAT:FORMATTED              ACCESS:SEQUENTIAL          

 OPENING ConcPlanViewPaperTrans.riv
 FILE TYPE:RIV   UNIT   18   STATUS:OLD    
 FORMAT:FORMATTED              ACCESS:SEQUENTIAL          

 OPENING ConcPlanViewPaperTrans.rch
 FILE TYPE:RCH   UNIT   19   STATUS:OLD    
 FORMAT:FORMATTED              ACCESS:SEQUENTIAL          

 OPENING ConcPlanViewPaperTrans.oc
 FILE TYPE:OC   UNIT   14   STATUS:OLD    
 FORMAT:FORMATTED              ACCESS:SEQUENTIAL          

 OPENING ConcPlanViewPaperTrans.pcg
 FILE TYPE:PCG   UNIT   27   STATUS:OLD    
 FORMAT:FORMATTED              ACCESS:SEQUENTIAL          

 OPENING ConcPlanViewPaperTrans.cbc
 FILE TYPE:DATA(BINARY)   UNIT   53   STATUS:REPLACE
 FORMAT:UNFORMATTED            ACCESS:STREAM              

 OPENING ConcPlanViewPaperTrans.hds
 FILE TYPE:DATA(BINARY)   UNIT   51   STATUS:REPLACE
 FORMAT:UNFORMATTED            ACCESS:STREAM              

 OPENING ConcPlanViewPaperTrans.ddn
 FILE TYPE:DATA(BINARY)   UNIT   52   STATUS:REPLACE
 FORMAT:UNFORMATTED            ACCESS:STREAM              

 BAS -- BASIC PACKAGE, VERSION 7, 5/2/2005 INPUT READ FROM UNIT   13
 
 MODFLOW was compiled using mixed precision
 Precision of REAL variables:           6
 Precision of DOUBLE PRECISION variables:          15

 DISCRETIZATION INPUT DATA READ FROM UNIT   11
 # DIS package for MODFLOW-2005 generated by Flopy 3.7.0
    1 LAYERS        19 ROWS        33 COLUMNS
    1 STRESS PERIOD(S) IN SIMULATION
 MODEL TIME UNIT IS DAYS
 MODEL LENGTH UNIT IS METERS
  Confining bed flag for each layer:
   0

                     DELR =   100.000    

                     DELC =   100.000    

 TOP ELEVATION OF LAYER 1 =   10.0000    

   MODEL LAYER BOTTOM EL. =   0.00000     FOR LAYER   1


 STRESS PERIOD     LENGTH       TIME STEPS     MULTIPLIER FOR DELT    SS FLAG
 ----------------------------------------------------------------------------
        1         500.0000         30                    1.500         TR

 TRANSIENT SIMULATION



 
 # BAS6 package for MODFLOW-2005 generated by Flopy 3.7.0                        
 THE FREE FORMAT OPTION HAS BEEN SELECTED



                     BOUNDARY ARRAY FOR LAYER   1
 READING ON UNIT   13 WITH FORMAT: (33I10)             

 AQUIFER HEAD WILL BE SET TO  -99.000     AT ALL NO-FLOW NODES (IBOUND=0).



                       INITIAL HEAD FOR LAYER   1
 READING ON UNIT   13 WITH FORMAT: (33E15.6)           
 # OC package for MODFLOW-2005 generated by Flopy 3.7.0

 OUTPUT CONTROL IS SPECIFIED ONLY AT TIME STEPS FOR WHICH OUTPUT IS DESIRED
 COMPACT CELL-BY-CELL BUDGET FILES WILL BE WRITTEN
 AUXILIARY DATA WILL BE SAVED IN CELL-BY-CELL BUDGET FILES
 HEAD PRINT FORMAT CODE IS   0    DRAWDOWN PRINT FORMAT CODE IS   0
 HEADS WILL BE SAVED ON UNIT   51    DRAWDOWNS WILL BE SAVED ON UNIT   52

 LPF -- LAYER-PROPERTY FLOW PACKAGE, VERSION 7, 5/2/2005
         INPUT READ FROM UNIT   15
 # LPF package for MODFLOW-2005 generated by Flopy 3.7.0
 CELL-BY-CELL FLOWS WILL BE SAVED ON UNIT   53
 HEAD AT CELLS THAT CONVERT TO DRY= -1.00000E+30
 No named parameters

   LAYER FLAGS:
 LAYER       LAYTYP        LAYAVG         CHANI        LAYVKA        LAYWET
 ---------------------------------------------------------------------------
    1             0             0     1.000E+00             0             0

   INTERPRETATION OF LAYER FLAGS:
                        INTERBLOCK     HORIZONTAL    DATA IN
         LAYER TYPE   TRANSMISSIVITY   ANISOTROPY   ARRAY VKA   WETTABILITY
 LAYER      (LAYTYP)      (LAYAVG)       (CHANI)      (LAYVKA)      (LAYWET)
 ---------------------------------------------------------------------------
    1      CONFINED      HARMONIC     1.000E+00    VERTICAL K  NON-WETTABLE

 WETTING CAPABILITY IS NOT ACTIVE IN ANY LAYER



              HYD. COND. ALONG ROWS FOR LAYER   1
 READING ON UNIT   15 WITH FORMAT: (33E15.6)           

      VERTICAL HYD. COND. =  1.000000E-05 FOR LAYER   1

         SPECIFIC STORAGE =  1.000000E-02 FOR LAYER   1

 WEL -- WELL PACKAGE, VERSION 7, 5/2/2005 INPUT READ FROM UNIT   20
 # WEL package for MODFLOW-2005 generated by Flopy 3.7.0
 No named parameters
 MAXIMUM OF      3 ACTIVE WELLS AT ONE TIME


     0 Well parameters

 RIV -- RIVER PACKAGE, VERSION 7, 5/2/2005 INPUT READ FROM UNIT   18
 # RIV package for MODFLOW-2005 generated by Flopy 3.7.0
 No named parameters
 MAXIMUM OF     45 ACTIVE RIVER REACHES AT ONE TIME


     0 River parameters

 RCH -- RECHARGE PACKAGE, VERSION 7, 5/2/2005 INPUT READ FROM UNIT   19
 # RCH package for MODFLOW-2005 generated by Flopy 3.7.0
 No named parameters
 OPTION 2 -- RECHARGE TO ONE SPECIFIED NODE IN EACH VERTICAL COLUMN


     0 Recharge parameters

 PCG -- CONJUGATE-GRADIENT SOLUTION PACKAGE, VERSION 7, 5/2/2005
 # PCG package for MODFLOW-2005 generated by Flopy 3.7.0
 MAXIMUM OF   1000 CALLS OF SOLUTION ROUTINE
 MAXIMUM OF     30 INTERNAL ITERATIONS PER CALL TO SOLUTION ROUTINE
 MATRIX PRECONDITIONING TYPE :    1



                                    SOLUTION BY THE CONJUGATE-GRADIENT METHOD
                                   -------------------------------------------
                    MAXIMUM NUMBER OF CALLS TO PCG ROUTINE =     1000
                        MAXIMUM ITERATIONS PER CALL TO PCG =       30
                               MATRIX PRECONDITIONING TYPE =        1
        RELAXATION FACTOR (ONLY USED WITH PRECOND. TYPE 1) =    0.80000E+00
 PARAMETER OF POLYNOMIAL PRECOND. = 2 (2) OR IS CALCULATED :        0
                         HEAD CHANGE CRITERION FOR CLOSURE =    0.10000E-04
                     RESIDUAL CHANGE CRITERION FOR CLOSURE =    0.10000E-04
            PCG HEAD AND RESIDUAL CHANGE PRINTOUT INTERVAL =      999
     PRINTING FROM SOLVER IS LIMITED(1) OR SUPPRESSED (>1) =        3
                            STEADY-STATE DAMPING PARAMETER =    0.10000E+01
                               TRANSIENT DAMPING PARAMETER =    0.10000E+01
1
                            STRESS PERIOD NO.    1, LENGTH =   500.0000    
                            -----------------------------------------------

                              NUMBER OF TIME STEPS =    30

                               MULTIPLIER FOR DELT =     1.500

                            INITIAL TIME STEP SIZE =  0.1303781E-02

 WELL NO.  LAYER   ROW   COL   STRESS RATE         
 --------------------------------------------------
      1      1      6     16     -0.2000E+05
      2      1      8      5     -0.1000E+05
      3      1     10     19      -5000.    

      3 WELLS

 REACH NO.  LAYER   ROW   COL     STAGE      CONDUCTANCE     BOTTOM EL.         
 -------------------------------------------------------------------------------
      1      1      1     14       94.80           50.00           92.80    
      2      1      1     15       94.80           50.00           92.80    
      3      1      1     16       94.90           50.00           92.90    
      4      1      1     17       94.90           50.00           92.90    
      5      1      1     18       95.00           50.00           93.00    
      6      1      1     19       95.00           50.00           93.00    
      7      1      1     20       95.00           50.00           93.00    
      8      1      2     12       94.70           50.00           92.70    
      9      1      2     13       94.70           50.00           92.70    
     10      1      2     14       94.70           50.00           92.70    
     11      1      3     11       94.60           50.00           92.60    
     12      1      3     12       94.60           50.00           92.60    
     13      1      4     10       94.50           50.00           92.50    
     14      1      4     11       94.50           50.00           92.50    
     15      1      5     10       94.50           50.00           92.50    
     16      1      6      9       94.40           50.00           92.40    
     17      1      6     10       94.40           50.00           92.20    
     18      1      7      9       94.30           50.00           92.30    
     19      1      8      9       94.20           50.00           92.20    
     20      1      9      9       94.10           50.00           92.10    
     21      1     10      9       94.00           50.00           92.00    
     22      1     10     10       94.00           50.00           92.00    
     23      1     11     10       93.50           50.00           91.50    
     24      1     11     11       93.50           50.00           91.50    
     25      1     12     11       93.00           50.00           91.50    
     26      1     12     12       93.00           50.00           91.50    
     27      1     12     13       93.00           50.00           91.50    
     28      1     13     13       92.50           50.00           90.50    
     29      1     13     14       92.50           50.00           90.50    
     30      1     14     14       92.00           50.00           90.00    
     31      1     14     15       92.00           50.00           90.00    
     32      1     15     14       91.50           50.00           89.50    
     33      1     15     15       91.50           50.00           89.50    
     34      1     16     13       91.00           50.00           89.00    
     35      1     16     14       91.00           50.00           89.00    
     36      1     17     10       90.50           50.00           88.50    
     37      1     17     11       90.50           50.00           88.50    
     38      1     17     12       90.50           50.00           88.50    
     39      1     17     13       90.50           50.00           88.50    
     40      1     18      8       90.20           50.00           88.20    
     41      1     18      9       90.20           50.00           88.20    
     42      1     18     10       90.20           50.00           88.20    
     43      1     19      6       90.00           50.00           88.00    
     44      1     19      7       90.00           50.00           88.00    
     45      1     19      8       90.00           50.00           88.00    

     45 RIVER REACHES



                           RECHARGE
 READING ON UNIT   19 WITH FORMAT: (33E15.6)           



               RECHARGE LAYER INDEX
 READING ON UNIT   19 WITH FORMAT: (33I10)             
 
 SOLVING FOR HEAD 

 OUTPUT CONTROL FOR STRESS PERIOD    1   TIME STEP    1
    SAVE HEAD FOR ALL LAYERS
    SAVE DRAWDOWN FOR ALL LAYERS
    SAVE BUDGET
    PRINT HEAD FOR ALL LAYERS
    PRINT BUDGET
 UBDSV1 SAVING "         STORAGE" ON UNIT  53 AT TIME STEP  1, STRESS PERIOD   1
 UBDSV2 SAVING "   CONSTANT HEAD" ON UNIT  53 AT TIME STEP  1, STRESS PERIOD   1
 UBDSV1 SAVING "FLOW RIGHT FACE " ON UNIT  53 AT TIME STEP  1, STRESS PERIOD   1
 UBDSV1 SAVING "FLOW FRONT FACE " ON UNIT  53 AT TIME STEP  1, STRESS PERIOD   1
1
              HEAD IN LAYER   1 AT END OF TIME STEP   1 IN STRESS PERIOD    1
  ---------------------------------------------------------------------------

            1           2           3           4           5           6           7           8           9          10
           11          12          13          14          15          16          17          18          19          20
           21          22          23          24          25          26          27          28          29          30
           31          32          33
 ........................................................................................................................
   1   -99.00      -99.00      -99.00      -99.00      -99.00      -99.00      -99.00      -99.00      -99.00      -99.00    
       -99.00      -99.00      100.00      100.00      100.00      100.00      100.00      100.00      100.00      100.00    
        100.0       100.0       100.0       100.0       100.0       100.0       100.0       100.0       100.0       100.0    
        100.0       100.0      -99.00    
   2   -99.00      -99.00       100.0       100.0       100.0       100.0       100.0       100.0       100.0      100.00    
        99.95       99.95       99.95       99.95       99.94      100.00       100.0       100.0       100.0       100.0    
        100.0       100.0       100.0       100.0       100.0       100.0       100.0       100.0       100.0       100.0    
        100.0       100.0       100.0    
   3   -99.00       100.0       100.0       100.0       100.0       100.0       100.0       100.0      100.00       99.95    
        65.09       65.05       65.05       65.05       65.15       99.91      100.00       100.0       100.0       100.0    
        100.0       100.0       100.0       100.0       100.0       100.0       100.0       100.0       100.0       100.0    
        100.0       100.0       100.0    
   4    100.0       100.0       100.0       100.0       100.0       100.0       100.0       100.0      100.00       99.95    
        65.05       65.00       64.94       65.00       65.09       99.91      100.00       100.0       100.0       100.0    
        100.0       100.0       100.0       100.0       100.0       100.0       100.0       100.0       100.0       100.0    
        100.0       100.0       100.0    
   5    100.0       100.0       100.0       100.0       100.0       100.0       100.0       100.0      100.00       99.95    
        65.05       64.96       40.24       64.94       65.09       99.91      100.00       100.0       100.0       100.0    
        100.0       100.0       100.0       100.0       100.0       100.0       100.0       100.0       100.0       100.0    
        100.0       100.0       100.0    
   6    100.0       100.0       100.0       100.0       100.0       100.0       100.0       100.0      100.00       99.95    
        65.05       65.00       64.94       65.00       65.09       99.88      100.00       100.0       100.0       100.0    
        100.0       100.0       100.0       100.0       100.0       100.0       100.0       100.0       100.0       100.0    
        100.0       100.0       100.0    
   7    100.0       100.0       100.0       100.0       100.0       100.0       100.0       100.0      100.00       99.94    
        65.06       65.00       65.00       65.00       65.09       99.91      100.00       100.0       100.0       100.0    
        100.0       100.0       100.0       100.0       100.0       100.0       100.0       100.0       100.0       100.0    
        100.0      -99.00      -99.00    
   8    100.0       100.0       100.0       100.0       99.99       100.0       100.0       100.0      100.00       99.91    
        65.09       65.00       65.00       65.00       65.09       99.91      100.00       100.0       100.0       100.0    
        100.0       100.0       100.0       100.0       100.0       100.0       100.0       100.0      -99.00      -99.00    
       -99.00      -99.00      -99.00    
   9    100.0       100.0       100.0       100.0       100.0       100.0       100.0       100.0      100.00       99.91    
        65.09       65.00       64.94       65.00       65.09       99.91      100.00       100.0       100.0       100.0    
        100.0       100.0       100.0       100.0       100.0       100.0       100.0      -99.00      -99.00      -99.00    
       -99.00      -99.00      -99.00    
  10    100.0       100.0       100.0       100.0       100.0       100.0       100.0       100.0      100.00       99.91    
        65.09       64.94       40.26       64.94       65.09       99.91      100.00       100.0       99.99       100.0    
        100.0       100.0       100.0       100.0       100.0       100.0       100.0      -99.00      -99.00      -99.00    
       -99.00      -99.00      -99.00    
  11    100.0       100.0       100.0       100.0       100.0       100.0       100.0       100.0      100.00       99.91    
        65.09       65.00       64.94       65.00       65.09       99.91      100.00       100.0       100.0       100.0    
        100.0       100.0       100.0       100.0       100.0       100.0       100.0      -99.00      -99.00      -99.00    
       -99.00      -99.00      -99.00    
  12    100.0       100.0       100.0       100.0       100.0       100.0       100.0       100.0      100.00       99.91    
        65.18       65.09       65.09       65.09       65.18       99.91      100.00       100.0       100.0       100.0    
        100.0       100.0       100.0       100.0       100.0       100.0       100.0      -99.00      -99.00      -99.00    
       -99.00      -99.00      -99.00    
  13    100.0       100.0       100.0       100.0       100.0       100.0       100.0       100.0       100.0      100.00    
        99.91       99.91       99.91       99.91       99.91      100.00       100.0       100.0       100.0       100.0    
        100.0       100.0       100.0       100.0       100.0       100.0       100.0      -99.00      -99.00      -99.00    
       -99.00      -99.00      -99.00    
  14    100.0       100.0       100.0       100.0       100.0       100.0       100.0       100.0       100.0       100.0    
       100.00      100.00      100.00      100.00      100.00       100.0       100.0       100.0       100.0       100.0    
        100.0       100.0       100.0       100.0       100.0       100.0       100.0      -99.00      -99.00      -99.00    
       -99.00      -99.00      -99.00    
  15   -99.00       100.0       100.0       100.0       100.0       100.0       100.0       100.0       100.0       100.0    
        100.0       100.0       100.0      100.00      100.00       100.0       100.0       100.0       100.0       100.0    
        100.0       100.0       100.0       100.0       100.0       100.0       100.0      -99.00      -99.00      -99.00    
       -99.00      -99.00      -99.00    
  16   -99.00       100.0       100.0       100.0       100.0       100.0       100.0       100.0       100.0       100.0    
        100.0       100.0      100.00      100.00       100.0       100.0       100.0       100.0       100.0       100.0    
        100.0       100.0       100.0       100.0       100.0       100.0      -99.00      -99.00      -99.00      -99.00    
       -99.00      -99.00      -99.00    
  17   -99.00       100.0       100.0       100.0       100.0       100.0       100.0       100.0       100.0      100.00    
       100.00      100.00      100.00       100.0       100.0       100.0       100.0       100.0       100.0       100.0    
        100.0       100.0       100.0       100.0       100.0      -99.00      -99.00      -99.00      -99.00      -99.00    
       -99.00      -99.00      -99.00    
  18   -99.00      -99.00       100.0       100.0       100.0       100.0       100.0      100.00      100.00      100.00    
        100.0       100.0       100.0       100.0       100.0       100.0       100.0       100.0       100.0       100.0    
        100.0       100.0       100.0      -99.00      -99.00      -99.00      -99.00      -99.00      -99.00      -99.00    
       -99.00      -99.00      -99.00    
  19   -99.00      -99.00      -99.00      -99.00       100.0      100.00      100.00      100.00       100.0       100.0    
        100.0       100.0      -99.00      -99.00      -99.00      -99.00      -99.00      -99.00      -99.00      -99.00    
       -99.00      -99.00      -99.00      -99.00      -99.00      -99.00      -99.00      -99.00      -99.00      -99.00    
       -99.00      -99.00      -99.00    

 HEAD WILL BE SAVED ON UNIT   51 AT END OF TIME STEP    1, STRESS PERIOD    1

 DRAWDOWN WILL BE SAVED ON UNIT   52 AT END OF TIME STEP    1, STRESS PERIOD    1
1
  VOLUMETRIC BUDGET FOR ENTIRE MODEL AT END OF TIME STEP    1, STRESS PERIOD   1
  ------------------------------------------------------------------------------

     CUMULATIVE VOLUMES      L**3       RATES FOR THIS TIME STEP      L**3/T
     ------------------                 ------------------------

           IN:                                      IN:
           ---                                      ---
             STORAGE =        2851.8372               STORAGE =     2187359.7500
       CONSTANT HEAD =           0.0000         CONSTANT HEAD =           0.0000
               WELLS =           0.0000                 WELLS =           0.0000
       RIVER LEAKAGE =           0.8149         RIVER LEAKAGE =         625.0000
            RECHARGE =           6.4146              RECHARGE =        4920.0000

            TOTAL IN =        2859.0667              TOTAL IN =     2192904.7500

          OUT:                                     OUT:
          ----                                     ----
             STORAGE =        2793.4612               STORAGE =     2142585.2500
       CONSTANT HEAD =       1.2482E-04         CONSTANT HEAD =       9.5736E-02
               WELLS =          45.6323                 WELLS =       35000.0000
       RIVER LEAKAGE =          17.7540         RIVER LEAKAGE =       13617.3115
            RECHARGE =           0.0000              RECHARGE =           0.0000

           TOTAL OUT =        2856.8477             TOTAL OUT =     2191202.5000

            IN - OUT =           2.2190              IN - OUT =        1702.2500

 PERCENT DISCREPANCY =           0.08     PERCENT DISCREPANCY =           0.08






         TIME SUMMARY AT END OF TIME STEP    1 IN STRESS PERIOD    1
                    SECONDS     MINUTES      HOURS       DAYS        YEARS
                    -----------------------------------------------------------
   TIME STEP LENGTH  112.65      1.8774     3.12907E-02 1.30378E-03 3.56956E-06
 STRESS PERIOD TIME  112.65      1.8774     3.12907E-02 1.30378E-03 3.56956E-06
         TOTAL TIME  112.65      1.8774     3.12907E-02 1.30378E-03 3.56956E-06
1
 
 SOLVING FOR HEAD 

 OUTPUT CONTROL FOR STRESS PERIOD    1   TIME STEP    2
    SAVE HEAD FOR ALL LAYERS
    SAVE DRAWDOWN FOR ALL LAYERS
    SAVE BUDGET
    PRINT HEAD FOR ALL LAYERS
    PRINT BUDGET
 UBDSV1 SAVING "         STORAGE" ON UNIT  53 AT TIME STEP  2, STRESS PERIOD   1
 UBDSV2 SAVING "   CONSTANT HEAD" ON UNIT  53 AT TIME STEP  2, STRESS PERIOD   1
 UBDSV1 SAVING "FLOW RIGHT FACE " ON UNIT  53 AT TIME STEP  2, STRESS PERIOD   1
 UBDSV1 SAVING "FLOW FRONT FACE " ON UNIT  53 AT TIME STEP  2, STRESS PERIOD   1
1
              HEAD IN LAYER   1 AT END OF TIME STEP   2 IN STRESS PERIOD    1
  ---------------------------------------------------------------------------

            1           2           3           4           5           6           7           8           9          10
           11          12          13          14          15          16          17          18          19          20
           21          22          23          24          25          26          27          28          29          30
           31          32          33
 ........................................................................................................................
   1   -99.00      -99.00      -99.00      -99.00      -99.00      -99.00      -99.00      -99.00      -99.00      -99.00    
       -99.00      -99.00      100.00      100.00      100.00      100.00      100.00      100.00      100.00      100.00    
        100.0       100.0       100.0       100.0       100.0       100.0       100.0       100.0       100.0       100.0    
        100.0       100.0      -99.00    
   2   -99.00      -99.00       100.0       100.0       100.0       100.0       100.0       100.0       100.0      100.00    
        99.89       99.89       99.89       99.89       99.85      100.00       100.0       100.0       100.0       100.0    
        100.0       100.0       100.0       100.0       100.0       100.0       100.0       100.0       100.0       100.0    
        100.0       100.0       100.0    
   3   -99.00       100.0       100.0       100.0       100.0       100.0       100.0       100.0      100.00       99.89    
        65.23       65.11       65.11       65.11       65.37       99.78      100.00       100.0       100.0       100.0    
        100.0       100.0       100.0       100.0       100.0       100.0       100.0       100.0       100.0       100.0    
        100.0       100.0       100.0    
   4    100.0       100.0       100.0       100.0       100.0       100.0       100.0       100.0      100.00       99.89    
        65.11       65.00       64.84       65.00       65.23       99.78      100.00       100.0       100.0       100.0    
        100.0       100.0       100.0       100.0       100.0       100.0       100.0       100.0       100.0       100.0    
        100.0       100.0       100.0    
   5    100.0       100.0       100.0       100.0       100.0       100.0       100.0       100.0      100.00       99.89    
        65.11       64.89       40.58       64.84       65.22       99.77      100.00       100.0       100.0       100.0    
        100.0       100.0       100.0       100.0       100.0       100.0       100.0       100.0       100.0       100.0    
        100.0       100.0       100.0    
   6    100.0       100.0       100.0       100.0       100.0       100.0       100.0       100.0      100.00       99.89    
        65.11       65.00       64.84       65.00       65.22       99.71      100.00       100.0       100.0       100.0    
        100.0       100.0       100.0       100.0       100.0       100.0       100.0       100.0       100.0       100.0    
        100.0       100.0       100.0    
   7    100.0       100.0       100.0       100.0       100.0       100.0       100.0       100.0      100.00       99.85    
        65.15       65.00       65.00       65.00       65.22       99.77      100.00       100.0       100.0       100.0    
        100.0       100.0       100.0       100.0       100.0       100.0       100.0       100.0       100.0       100.0    
        100.0      -99.00      -99.00    
   8    100.0       100.0       100.0       100.0       99.97       100.0       100.0       100.0      100.00       99.78    
        65.22       65.00       65.00       65.00       65.22       99.78      100.00       100.0       100.0       100.0    
        100.0       100.0       100.0       100.0       100.0       100.0       100.0       100.0      -99.00      -99.00    
       -99.00      -99.00      -99.00    
   9    100.0       100.0       100.0       100.0       100.0       100.0       100.0       100.0      100.00       99.78    
        65.22       65.00       64.84       65.00       65.22       99.78      100.00       100.0       100.0       100.0    
        100.0       100.0       100.0       100.0       100.0       100.0       100.0      -99.00      -99.00      -99.00    
       -99.00      -99.00      -99.00    
  10    100.0       100.0       100.0       100.0       100.0       100.0       100.0       100.0      100.00       99.77    
        65.22       64.84       40.64       64.84       65.22       99.78      100.00       100.0       99.98       100.0    
        100.0       100.0       100.0       100.0       100.0       100.0       100.0      -99.00      -99.00      -99.00    
       -99.00      -99.00      -99.00    
  11    100.0       100.0       100.0       100.0       100.0       100.0       100.0       100.0      100.00       99.77    
        65.23       65.00       64.84       65.00       65.23       99.78      100.00       100.0       100.0       100.0    
        100.0       100.0       100.0       100.0       100.0       100.0       100.0      -99.00      -99.00      -99.00    
       -99.00      -99.00      -99.00    
  12    100.0       100.0       100.0       100.0       100.0       100.0       100.0       100.0      100.00       99.78    
        65.45       65.23       65.22       65.23       65.45       99.78      100.00       100.0       100.0       100.0    
        100.0       100.0       100.0       100.0       100.0       100.0       100.0      -99.00      -99.00      -99.00    
       -99.00      -99.00      -99.00    
  13    100.0       100.0       100.0       100.0       100.0       100.0       100.0       100.0       100.0      100.00    
        99.78       99.78       99.77       99.77       99.78      100.00       100.0       100.0       100.0       100.0    
        100.0       100.0       100.0       100.0       100.0       100.0       100.0      -99.00      -99.00      -99.00    
       -99.00      -99.00      -99.00    
  14    100.0       100.0       100.0       100.0       100.0       100.0       100.0       100.0       100.0       100.0    
       100.00      100.00      100.00      100.00      100.00       100.0       100.0       100.0       100.0       100.0    
        100.0       100.0       100.0       100.0       100.0       100.0       100.0      -99.00      -99.00      -99.00    
       -99.00      -99.00      -99.00    
  15   -99.00       100.0       100.0       100.0       100.0       100.0       100.0       100.0       100.0       100.0    
        100.0       100.0       100.0      100.00      100.00       100.0       100.0       100.0       100.0       100.0    
        100.0       100.0       100.0       100.0       100.0       100.0       100.0      -99.00      -99.00      -99.00    
       -99.00      -99.00      -99.00    
  16   -99.00       100.0       100.0       100.0       100.0       100.0       100.0       100.0       100.0       100.0    
        100.0       100.0      100.00      100.00       100.0       100.0       100.0       100.0       100.0       100.0    
        100.0       100.0       100.0       100.0       100.0       100.0      -99.00      -99.00      -99.00      -99.00    
       -99.00      -99.00      -99.00    
  17   -99.00       100.0       100.0       100.0       100.0       100.0       100.0       100.0       100.0      100.00    
       100.00      100.00      100.00       100.0       100.0       100.0       100.0       100.0       100.0       100.0    
        100.0       100.0       100.0       100.0       100.0      -99.00      -99.00      -99.00      -99.00      -99.00    
       -99.00      -99.00      -99.00    
  18   -99.00      -99.00       100.0       100.0       100.0       100.0       100.0      100.00      100.00      100.00    
        100.0       100.0       100.0       100.0       100.0       100.0       100.0       100.0       100.0       100.0    
        100.0       100.0       100.0      -99.00      -99.00      -99.00      -99.00      -99.00      -99.00      -99.00    
       -99.00      -99.00      -99.00    
  19   -99.00      -99.00      -99.00      -99.00       100.0      100.00      100.00      100.00       100.0       100.0    
        100.0       100.0      -99.00      -99.00      -99.00      -99.00      -99.00      -99.00      -99.00      -99.00    
       -99.00      -99.00      -99.00      -99.00      -99.00      -99.00      -99.00      -99.00      -99.00      -99.00    
       -99.00      -99.00      -99.00    

 HEAD WILL BE SAVED ON UNIT   51 AT END OF TIME STEP    2, STRESS PERIOD    1

 DRAWDOWN WILL BE SAVED ON UNIT   52 AT END OF TIME STEP    2, STRESS PERIOD    1
1
  VOLUMETRIC BUDGET FOR ENTIRE MODEL AT END OF TIME STEP    2, STRESS PERIOD   1
  ------------------------------------------------------------------------------

     CUMULATIVE VOLUMES      L**3       RATES FOR THIS TIME STEP      L**3/T
     ------------------                 ------------------------

           IN:                                      IN:
           ---                                      ---
             STORAGE =        7079.5215               STORAGE =     2161756.5000
       CONSTANT HEAD =           0.0000         CONSTANT HEAD =           0.0000
               WELLS =           0.0000                 WELLS =           0.0000
       RIVER LEAKAGE =           2.0372         RIVER LEAKAGE =         625.0000
            RECHARGE =          16.0365              RECHARGE =        4920.0000

            TOTAL IN =        7097.5952              TOTAL IN =     2167301.5000

          OUT:                                     OUT:
          ----                                     ----
             STORAGE =        6935.3330               STORAGE =     2117878.0000
       CONSTANT HEAD =       5.2583E-04         CONSTANT HEAD =           0.2050
               WELLS =         114.0808                 WELLS =       35000.0000
       RIVER LEAKAGE =          44.2896         RIVER LEAKAGE =       13568.5625
            RECHARGE =           0.0000              RECHARGE =           0.0000

           TOTAL OUT =        7093.7036             TOTAL OUT =     2166446.7500

            IN - OUT =           3.8916              IN - OUT =         854.7500

 PERCENT DISCREPANCY =           0.05     PERCENT DISCREPANCY =           0.04






         TIME SUMMARY AT END OF TIME STEP    2 IN STRESS PERIOD    1
                    SECONDS     MINUTES      HOURS       DAYS        YEARS
                    -----------------------------------------------------------
   TIME STEP LENGTH  168.97      2.8162     4.69361E-02 1.95567E-03 5.35433E-06
 STRESS PERIOD TIME  281.62      4.6936     7.82268E-02 3.25945E-03 8.92389E-06
         TOTAL TIME  281.62      4.6936     7.82268E-02 3.25945E-03 8.92389E-06
1
 
 SOLVING FOR HEAD 

 OUTPUT CONTROL FOR STRESS PERIOD    1   TIME STEP    3
    SAVE HEAD FOR ALL LAYERS
    SAVE DRAWDOWN FOR ALL LAYERS
    SAVE BUDGET
    PRINT HEAD FOR ALL LAYERS
    PRINT BUDGET
 UBDSV1 SAVING "         STORAGE" ON UNIT  53 AT TIME STEP  3, STRESS PERIOD   1
 UBDSV2 SAVING "   CONSTANT HEAD" ON UNIT  53 AT TIME STEP  3, STRESS PERIOD   1
 UBDSV1 SAVING "FLOW RIGHT FACE " ON UNIT  53 AT TIME STEP  3, STRESS PERIOD   1
 UBDSV1 SAVING "FLOW FRONT FACE " ON UNIT  53 AT TIME STEP  3, STRESS PERIOD   1
1
              HEAD IN LAYER   1 AT END OF TIME STEP   3 IN STRESS PERIOD    1
  ---------------------------------------------------------------------------

            1           2           3           4           5           6           7           8           9          10
           11          12          13          14          15          16          17          18          19          20
           21          22          23          24          25          26          27          28          29          30
           31          32          33
 ........................................................................................................................
   1   -99.00      -99.00      -99.00      -99.00      -99.00      -99.00      -99.00      -99.00      -99.00      -99.00    
       -99.00      -99.00      100.00      100.00      100.00      100.00      100.00      100.00      100.00      100.00    
        100.0       100.0       100.0       100.0       100.0       100.0       100.0       100.0       100.0       100.0    
        100.0       100.0      -99.00    
   2   -99.00      -99.00       100.0       100.0       100.0       100.0       100.0       100.0       100.0      100.00    
        99.79       99.78       99.78       99.78       99.72      100.00       100.0       100.0       100.0       100.0    
        100.0       100.0       100.0       100.0       100.0       100.0       100.0       100.0       100.0       100.0    
        100.0       100.0       100.0    
   3   -99.00       100.0       100.0       100.0       100.0       100.0       100.0       100.0      100.00       99.79    
        65.43       65.22       65.21       65.22       65.70       99.58      100.00       100.0       100.0       100.0    
        100.0       100.0       100.0       100.0       100.0       100.0       100.0       100.0       100.0       100.0    
        100.0       100.0       100.0    
   4    100.0       100.0       100.0       100.0       100.0       100.0       100.0       100.0      100.00       99.78    
        65.22       65.00       64.71       65.00       65.43       99.58      100.00       100.0       100.0       100.0    
        100.0       100.0       100.0       100.0       100.0       100.0       100.0       100.0       100.0       100.0    
        100.0       100.0       100.0    
   5    100.0       100.0       100.0       100.0       100.0       100.0       100.0       100.0      100.00       99.78    
        65.21       64.80       41.09       64.71       65.42       99.58      100.00       100.0       100.0       100.0    
        100.0       100.0       100.0       100.0       100.0       100.0       100.0       100.0       100.0       100.0    
        100.0       100.0       100.0    
   6    100.0       100.0       100.0       100.0       100.0       100.0       100.0       100.0      100.00       99.78    
        65.21       65.00       64.71       65.00       65.42       99.46      100.00       100.0       100.0       100.0    
        100.0       100.0       100.0       100.0       100.0       100.0       100.0       100.0       100.0       100.0    
        100.0       100.0       100.0    
   7    100.0       100.0       100.0       100.0      100.00       100.0       100.0       100.0      100.00       99.71    
        65.28       65.00       65.00       65.00       65.42       99.58      100.00       100.0       100.0       100.0    
        100.0       100.0       100.0       100.0       100.0       100.0       100.0       100.0       100.0       100.0    
        100.0      -99.00      -99.00    
   8    100.0       100.0       100.0      100.00       99.94      100.00       100.0       100.0       99.99       99.58    
        65.42       65.00       65.00       65.00       65.42       99.58      100.00       100.0       100.0       100.0    
        100.0       100.0       100.0       100.0       100.0       100.0       100.0       100.0      -99.00      -99.00    
       -99.00      -99.00      -99.00    
   9    100.0       100.0       100.0       100.0      100.00       100.0       100.0       100.0       99.99       99.58    
        65.42       65.00       64.71       65.00       65.42       99.58      100.00       100.0      100.00       100.0    
        100.0       100.0       100.0       100.0       100.0       100.0       100.0      -99.00      -99.00      -99.00    
       -99.00      -99.00      -99.00    
  10    100.0       100.0       100.0       100.0       100.0       100.0       100.0       100.0       99.99       99.58    
        65.42       64.71       41.19       64.71       65.42       99.58      100.00      100.00       99.97      100.00    
        100.0       100.0       100.0       100.0       100.0       100.0       100.0      -99.00      -99.00      -99.00    
       -99.00      -99.00      -99.00    
  11    100.0       100.0       100.0       100.0       100.0       100.0       100.0       100.0      100.00       99.58    
        65.43       65.00       64.71       65.00       65.43       99.58      100.00       100.0      100.00       100.0    
        100.0       100.0       100.0       100.0       100.0       100.0       100.0      -99.00      -99.00      -99.00    
       -99.00      -99.00      -99.00    
  12    100.0       100.0       100.0       100.0       100.0       100.0       100.0       100.0      100.00       99.58    
        65.84       65.43       65.42       65.43       65.84       99.58      100.00       100.0       100.0       100.0    
        100.0       100.0       100.0       100.0       100.0       100.0       100.0      -99.00      -99.00      -99.00    
       -99.00      -99.00      -99.00    
  13    100.0       100.0       100.0       100.0       100.0       100.0       100.0       100.0       100.0       99.99    
        99.58       99.58       99.58       99.58       99.58       99.99       100.0       100.0       100.0       100.0    
        100.0       100.0       100.0       100.0       100.0       100.0       100.0      -99.00      -99.00      -99.00    
       -99.00      -99.00      -99.00    
  14    100.0       100.0       100.0       100.0       100.0       100.0       100.0       100.0       100.0       100.0    
       100.00      100.00      100.00       99.99       99.99       100.0       100.0       100.0       100.0       100.0    
        100.0       100.0       100.0       100.0       100.0       100.0       100.0      -99.00      -99.00      -99.00    
       -99.00      -99.00      -99.00    
  15   -99.00       100.0       100.0       100.0       100.0       100.0       100.0       100.0       100.0       100.0    
        100.0       100.0       100.0      100.00      100.00       100.0       100.0       100.0       100.0       100.0    
        100.0       100.0       100.0       100.0       100.0       100.0       100.0      -99.00      -99.00      -99.00    
       -99.00      -99.00      -99.00    
  16   -99.00       100.0       100.0       100.0       100.0       100.0       100.0       100.0       100.0       100.0    
        100.0       100.0      100.00      100.00       100.0       100.0       100.0       100.0       100.0       100.0    
        100.0       100.0       100.0       100.0       100.0       100.0      -99.00      -99.00      -99.00      -99.00    
       -99.00      -99.00      -99.00    
  17   -99.00       100.0       100.0       100.0       100.0       100.0       100.0       100.0       100.0      100.00    
       100.00      100.00      100.00       100.0       100.0       100.0       100.0       100.0       100.0       100.0    
        100.0       100.0       100.0       100.0       100.0      -99.00      -99.00      -99.00      -99.00      -99.00    
       -99.00      -99.00      -99.00    
  18   -99.00      -99.00       100.0       100.0       100.0       100.0       100.0      100.00      100.00      100.00    
        100.0       100.0       100.0       100.0       100.0       100.0       100.0       100.0       100.0       100.0    
        100.0       100.0       100.0      -99.00      -99.00      -99.00      -99.00      -99.00      -99.00      -99.00    
       -99.00      -99.00      -99.00    
  19   -99.00      -99.00      -99.00      -99.00       100.0      100.00      100.00      100.00       100.0       100.0    
        100.0       100.0      -99.00      -99.00      -99.00      -99.00      -99.00      -99.00      -99.00      -99.00    
       -99.00      -99.00      -99.00      -99.00      -99.00      -99.00      -99.00      -99.00      -99.00      -99.00    
       -99.00      -99.00      -99.00    

 HEAD WILL BE SAVED ON UNIT   51 AT END OF TIME STEP    3, STRESS PERIOD    1

 DRAWDOWN WILL BE SAVED ON UNIT   52 AT END OF TIME STEP    3, STRESS PERIOD    1
1
  VOLUMETRIC BUDGET FOR ENTIRE MODEL AT END OF TIME STEP    3, STRESS PERIOD   1
  ------------------------------------------------------------------------------

     CUMULATIVE VOLUMES      L**3       RATES FOR THIS TIME STEP      L**3/T
     ------------------                 ------------------------

           IN:                                      IN:
           ---                                      ---
             STORAGE =       13312.1797               STORAGE =     2124644.7500
       CONSTANT HEAD =           0.0000         CONSTANT HEAD =           0.0000
               WELLS =           0.0000                 WELLS =           0.0000
       RIVER LEAKAGE =           3.8706         RIVER LEAKAGE =         625.0000
            RECHARGE =          30.4694              RECHARGE =        4920.0000

            TOTAL IN =       13346.5195              TOTAL IN =     2130189.7500

          OUT:                                     OUT:
          ----                                     ----
             STORAGE =       13044.2051               STORAGE =     2082447.1250
       CONSTANT HEAD =       2.3291E-03         CONSTANT HEAD =           0.6147
               WELLS =         216.7535                 WELLS =       35000.0000
       RIVER LEAKAGE =          83.8804         RIVER LEAKAGE =       13496.0459
            RECHARGE =           0.0000              RECHARGE =           0.0000

           TOTAL OUT =       13344.8408             TOTAL OUT =     2130943.7500

            IN - OUT =           1.6787              IN - OUT =        -754.0000

 PERCENT DISCREPANCY =           0.01     PERCENT DISCREPANCY =          -0.04






         TIME SUMMARY AT END OF TIME STEP    3 IN STRESS PERIOD    1
                    SECONDS     MINUTES      HOURS       DAYS        YEARS
                    -----------------------------------------------------------
   TIME STEP LENGTH  253.45      4.2242     7.04041E-02 2.93351E-03 8.03150E-06
 STRESS PERIOD TIME  535.07      8.9179     0.14863     6.19296E-03 1.69554E-05
         TOTAL TIME  535.07      8.9179     0.14863     6.19296E-03 1.69554E-05
1
 
 SOLVING FOR HEAD 

 OUTPUT CONTROL FOR STRESS PERIOD    1   TIME STEP    4
    SAVE HEAD FOR ALL LAYERS
    SAVE DRAWDOWN FOR ALL LAYERS
    SAVE BUDGET
    PRINT HEAD FOR ALL LAYERS
    PRINT BUDGET
 UBDSV1 SAVING "         STORAGE" ON UNIT  53 AT TIME STEP  4, STRESS PERIOD   1
 UBDSV2 SAVING "   CONSTANT HEAD" ON UNIT  53 AT TIME STEP  4, STRESS PERIOD   1
 UBDSV1 SAVING "FLOW RIGHT FACE " ON UNIT  53 AT TIME STEP  4, STRESS PERIOD   1
 UBDSV1 SAVING "FLOW FRONT FACE " ON UNIT  53 AT TIME STEP  4, STRESS PERIOD   1
1
              HEAD IN LAYER   1 AT END OF TIME STEP   4 IN STRESS PERIOD    1
  ---------------------------------------------------------------------------

            1           2           3           4           5           6           7           8           9          10
           11          12          13          14          15          16          17          18          19          20
           21          22          23          24          25          26          27          28          29          30
           31          32          33
 ........................................................................................................................
   1   -99.00      -99.00      -99.00      -99.00      -99.00      -99.00      -99.00      -99.00      -99.00      -99.00    
       -99.00      -99.00      100.00       99.99       99.99      100.00      100.00      100.00      100.00      100.00    
        100.0       100.0       100.0       100.0       100.0       100.0       100.0       100.0       100.0       100.0    
        100.0       100.0      -99.00    
   2   -99.00      -99.00       100.0       100.0       100.0       100.0       100.0       100.0       100.0      100.00    
        99.64       99.63       99.63       99.63       99.53       99.99      100.00       100.0       100.0       100.0    
        100.0       100.0       100.0       100.0       100.0       100.0       100.0       100.0       100.0       100.0    
        100.0       100.0       100.0    
   3   -99.00       100.0       100.0       100.0       100.0       100.0       100.0       100.0      100.00       99.64    
        65.72       65.37       65.36       65.37       66.18       99.30       99.99       100.0       100.0       100.0    
        100.0       100.0       100.0       100.0       100.0       100.0       100.0       100.0       100.0       100.0    
        100.0       100.0       100.0    
   4    100.0       100.0       100.0       100.0       100.0       100.0       100.0       100.0      100.00       99.63    
        65.37       65.00       64.52       65.00       65.72       99.29       99.99       100.0       100.0       100.0    
        100.0       100.0       100.0       100.0       100.0       100.0       100.0       100.0       100.0       100.0    
        100.0       100.0       100.0    
   5    100.0       100.0       100.0       100.0       100.0       100.0       100.0       100.0      100.00       99.63    
        65.36       64.68       41.83       64.53       65.71       99.29       99.99       100.0       100.0       100.0    
        100.0       100.0       100.0       100.0       100.0       100.0       100.0       100.0       100.0       100.0    
        100.0       100.0       100.0    
   6    100.0       100.0       100.0       100.0       100.0       100.0       100.0       100.0       99.99       99.63    
        65.36       64.99       64.52       65.00       65.71       99.09       99.99      100.00       100.0       100.0    
        100.0       100.0       100.0       100.0       100.0       100.0       100.0       100.0       100.0       100.0    
        100.0       100.0       100.0    
   7    100.0       100.0       100.0       100.0      100.00       100.0       100.0       100.0       99.99       99.52    
        65.48       65.01       64.99       65.01       65.71       99.29       99.99       100.0       100.0       100.0    
        100.0       100.0       100.0       100.0       100.0       100.0       100.0       100.0       100.0       100.0    
        100.0      -99.00      -99.00    
   8    100.0       100.0       100.0      100.00       99.90      100.00       100.0       100.0       99.99       99.29    
        65.71       65.01       64.99       65.01       65.71       99.29       99.99       100.0       100.0       100.0    
        100.0       100.0       100.0       100.0       100.0       100.0       100.0       100.0      -99.00      -99.00    
       -99.00      -99.00      -99.00    
   9    100.0       100.0       100.0       100.0      100.00       100.0       100.0       100.0       99.99       99.29    
        65.71       65.00       64.52       65.00       65.71       99.29       99.99       100.0      100.00       100.0    
        100.0       100.0       100.0       100.0       100.0       100.0       100.0      -99.00      -99.00      -99.00    
       -99.00      -99.00      -99.00    
  10    100.0       100.0       100.0       100.0       100.0       100.0       100.0       100.0       99.99       99.29    
        65.71       64.53       41.98       64.53       65.71       99.29       99.99      100.00       99.95      100.00    
        100.0       100.0       100.0       100.0       100.0       100.0       100.0      -99.00      -99.00      -99.00    
       -99.00      -99.00      -99.00    
  11    100.0       100.0       100.0       100.0       100.0       100.0       100.0       100.0       99.99       99.29    
        65.72       65.01       64.53       65.01       65.72       99.29       99.99       100.0      100.00       100.0    
        100.0       100.0       100.0       100.0       100.0       100.0       100.0      -99.00      -99.00      -99.00    
       -99.00      -99.00      -99.00    
  12    100.0       100.0       100.0       100.0       100.0       100.0       100.0       100.0       99.99       99.31    
        66.41       65.72       65.71       65.72       66.41       99.31       99.99       100.0       100.0       100.0    
        100.0       100.0       100.0       100.0       100.0       100.0       100.0      -99.00      -99.00      -99.00    
       -99.00      -99.00      -99.00    
  13    100.0       100.0       100.0       100.0       100.0       100.0       100.0       100.0      100.00       99.98    
        99.31       99.29       99.28       99.28       99.31       99.98      100.00       100.0       100.0       100.0    
        100.0       100.0       100.0       100.0       100.0       100.0       100.0      -99.00      -99.00      -99.00    
       -99.00      -99.00      -99.00    
  14    100.0       100.0       100.0       100.0       100.0       100.0       100.0       100.0       100.0      100.00    
        99.99       99.99       99.99       99.99       99.99      100.00       100.0       100.0       100.0       100.0    
        100.0       100.0       100.0       100.0       100.0       100.0       100.0      -99.00      -99.00      -99.00    
       -99.00      -99.00      -99.00    
  15   -99.00       100.0       100.0       100.0       100.0       100.0       100.0       100.0       100.0       100.0    
        100.0       100.0      100.00      100.00      100.00       100.0       100.0       100.0       100.0       100.0    
        100.0       100.0       100.0       100.0       100.0       100.0       100.0      -99.00      -99.00      -99.00    
       -99.00      -99.00      -99.00    
  16   -99.00       100.0       100.0       100.0       100.0       100.0       100.0       100.0       100.0       100.0    
        100.0       100.0      100.00      100.00       100.0       100.0       100.0       100.0       100.0       100.0    
        100.0       100.0       100.0       100.0       100.0       100.0      -99.00      -99.00      -99.00      -99.00    
       -99.00      -99.00      -99.00    
  17   -99.00       100.0       100.0       100.0       100.0       100.0       100.0       100.0       100.0      100.00    
       100.00      100.00      100.00       100.0       100.0       100.0       100.0       100.0       100.0       100.0    
        100.0       100.0       100.0       100.0       100.0      -99.00      -99.00      -99.00      -99.00      -99.00    
       -99.00      -99.00      -99.00    
  18   -99.00      -99.00       100.0       100.0       100.0       100.0       100.0      100.00      100.00      100.00    
        100.0       100.0       100.0       100.0       100.0       100.0       100.0       100.0       100.0       100.0    
        100.0       100.0       100.0      -99.00      -99.00      -99.00      -99.00      -99.00      -99.00      -99.00    
       -99.00      -99.00      -99.00    
  19   -99.00      -99.00      -99.00      -99.00       100.0       99.99       99.99       99.99       100.0       100.0    
        100.0       100.0      -99.00      -99.00      -99.00      -99.00      -99.00      -99.00      -99.00      -99.00    
       -99.00      -99.00      -99.00      -99.00      -99.00      -99.00      -99.00      -99.00      -99.00      -99.00    
       -99.00      -99.00      -99.00    

 HEAD WILL BE SAVED ON UNIT   51 AT END OF TIME STEP    4, STRESS PERIOD    1

 DRAWDOWN WILL BE SAVED ON UNIT   52 AT END OF TIME STEP    4, STRESS PERIOD    1
1
  VOLUMETRIC BUDGET FOR ENTIRE MODEL AT END OF TIME STEP    4, STRESS PERIOD   1
  ------------------------------------------------------------------------------

     CUMULATIVE VOLUMES      L**3       RATES FOR THIS TIME STEP      L**3/T
     ------------------                 ------------------------

           IN:                                      IN:
           ---                                      ---
             STORAGE =       22424.6602               STORAGE =     2070896.2500
       CONSTANT HEAD =           0.0000         CONSTANT HEAD =           0.0000
               WELLS =           0.0000                 WELLS =           0.0000
       RIVER LEAKAGE =           6.6208         RIVER LEAKAGE =         625.0000
            RECHARGE =          52.1186              RECHARGE =        4920.0000

            TOTAL IN =       22483.4004              TOTAL IN =     2076441.2500

          OUT:                                     OUT:
          ----                                     ----
             STORAGE =       21968.7246               STORAGE =     2028180.2500
       CONSTANT HEAD =       7.1166E-03         CONSTANT HEAD =           1.0880
               WELLS =         370.7626                 WELLS =       35000.0000
       RIVER LEAKAGE =         142.7939         RIVER LEAKAGE =       13388.6523
            RECHARGE =           0.0000              RECHARGE =           0.0000

           TOTAL OUT =       22482.2871             TOTAL OUT =     2076570.0000

            IN - OUT =           1.1133              IN - OUT =        -128.7500

 PERCENT DISCREPANCY =           0.00     PERCENT DISCREPANCY =          -0.01






         TIME SUMMARY AT END OF TIME STEP    4 IN STRESS PERIOD    1
                    SECONDS     MINUTES      HOURS       DAYS        YEARS
                    -----------------------------------------------------------
   TIME STEP LENGTH  380.18      6.3364     0.10561     4.40026E-03 1.20473E-05
 STRESS PERIOD TIME  915.25      15.254     0.25424     1.05932E-02 2.90026E-05
         TOTAL TIME  915.25      15.254     0.25424     1.05932E-02 2.90026E-05
1
 
 SOLVING FOR HEAD 

 OUTPUT CONTROL FOR STRESS PERIOD    1   TIME STEP    5
    SAVE HEAD FOR ALL LAYERS
    SAVE DRAWDOWN FOR ALL LAYERS
    SAVE BUDGET
    PRINT HEAD FOR ALL LAYERS
    PRINT BUDGET
 UBDSV1 SAVING "         STORAGE" ON UNIT  53 AT TIME STEP  5, STRESS PERIOD   1
 UBDSV2 SAVING "   CONSTANT HEAD" ON UNIT  53 AT TIME STEP  5, STRESS PERIOD   1
 UBDSV1 SAVING "FLOW RIGHT FACE " ON UNIT  53 AT TIME STEP  5, STRESS PERIOD   1
 UBDSV1 SAVING "FLOW FRONT FACE " ON UNIT  53 AT TIME STEP  5, STRESS PERIOD   1
1
              HEAD IN LAYER   1 AT END OF TIME STEP   5 IN STRESS PERIOD    1
  ---------------------------------------------------------------------------

            1           2           3           4           5           6           7           8           9          10
           11          12          13          14          15          16          17          18          19          20
           21          22          23          24          25          26          27          28          29          30
           31          32          33
 ........................................................................................................................
   1   -99.00      -99.00      -99.00      -99.00      -99.00      -99.00      -99.00      -99.00      -99.00      -99.00    
       -99.00      -99.00       99.99       99.99       99.99      100.00      100.00      100.00      100.00      100.00    
        100.0       100.0       100.0       100.0       100.0       100.0       100.0       100.0       100.0       100.0    
        100.0       100.0      -99.00    
   2   -99.00      -99.00       100.0       100.0       100.0       100.0       100.0       100.0       100.0       99.99    
        99.42       99.41       99.41       99.41       99.26       99.97      100.00       100.0       100.0       100.0    
        100.0       100.0       100.0       100.0       100.0       100.0       100.0       100.0       100.0       100.0    
        100.0       100.0       100.0    
   3   -99.00       100.0       100.0       100.0       100.0       100.0       100.0       100.0       99.99       99.43    
        66.16       65.59       65.57       65.60       66.87       98.91       99.98      100.00       100.0       100.0    
        100.0       100.0       100.0       100.0       100.0       100.0       100.0       100.0       100.0       100.0    
        100.0       100.0       100.0    
   4    100.0       100.0       100.0       100.0       100.0       100.0       100.0       100.0       99.99       99.41    
        65.59       65.00       64.27       65.00       66.14       98.87       99.98      100.00       100.0       100.0    
        100.0       100.0       100.0       100.0       100.0       100.0       100.0       100.0       100.0       100.0    
        100.0       100.0       100.0    
   5    100.0       100.0       100.0       100.0       100.0       100.0       100.0       100.0       99.99       99.41    
        65.58       64.50       42.86       64.29       66.11       98.86       99.98      100.00       100.0       100.0    
        100.0       100.0       100.0       100.0       100.0       100.0       100.0       100.0       100.0       100.0    
        100.0       100.0       100.0    
   6    100.0       100.0       100.0       100.0       100.0       100.0       100.0       100.0       99.99       99.41    
        65.58       64.99       64.27       64.99       66.12       98.55       99.97      100.00       100.0       100.0    
        100.0       100.0       100.0       100.0       100.0       100.0       100.0       100.0       100.0       100.0    
        100.0       100.0       100.0    
   7    100.0       100.0       100.0       100.0      100.00       100.0       100.0       100.0       99.99       99.23    
        65.77       65.02       64.99       65.02       66.13       98.86       99.98      100.00       100.0       100.0    
        100.0       100.0       100.0       100.0       100.0       100.0       100.0       100.0       100.0       100.0    
        100.0      -99.00      -99.00    
   8    100.0       100.0       100.0      100.00       99.84      100.00       100.0      100.00       99.97       98.88    
        66.12       65.02       64.99       65.02       66.13       98.87       99.98      100.00       100.0       100.0    
        100.0       100.0       100.0       100.0       100.0       100.0       100.0       100.0      -99.00      -99.00    
       -99.00      -99.00      -99.00    
   9    100.0       100.0       100.0       100.0      100.00       100.0       100.0      100.00       99.97       98.87    
        66.13       64.99       64.27       64.99       66.13       98.87       99.98      100.00      100.00       100.0    
        100.0       100.0       100.0       100.0       100.0       100.0       100.0      -99.00      -99.00      -99.00    
       -99.00      -99.00      -99.00    
  10    100.0       100.0       100.0       100.0       100.0       100.0       100.0      100.00       99.97       98.87    
        66.11       64.30       43.10       64.30       66.12       98.87       99.98      100.00       99.92      100.00    
        100.0       100.0       100.0       100.0       100.0       100.0       100.0      -99.00      -99.00      -99.00    
       -99.00      -99.00      -99.00    
  11    100.0       100.0       100.0       100.0       100.0       100.0       100.0      100.00       99.98       98.87    
        66.15       65.02       64.30       65.02       66.15       98.87       99.98      100.00      100.00       100.0    
        100.0       100.0       100.0       100.0       100.0       100.0       100.0      -99.00      -99.00      -99.00    
       -99.00      -99.00      -99.00    
  12    100.0       100.0       100.0       100.0       100.0       100.0       100.0      100.00       99.98       98.92    
        67.22       66.15       66.12       66.15       67.21       98.92       99.98      100.00       100.0       100.0    
        100.0       100.0       100.0       100.0       100.0       100.0       100.0      -99.00      -99.00      -99.00    
       -99.00      -99.00      -99.00    
  13    100.0       100.0       100.0       100.0       100.0       100.0       100.0       100.0      100.00       99.96    
        98.92       98.87       98.86       98.87       98.92       99.96      100.00       100.0       100.0       100.0    
        100.0       100.0       100.0       100.0       100.0       100.0       100.0      -99.00      -99.00      -99.00    
       -99.00      -99.00      -99.00    
  14    100.0       100.0       100.0       100.0       100.0       100.0       100.0       100.0       100.0      100.00    
        99.98       99.98       99.98       99.97       99.97      100.00       100.0       100.0       100.0       100.0    
        100.0       100.0       100.0       100.0       100.0       100.0       100.0      -99.00      -99.00      -99.00    
       -99.00      -99.00      -99.00    
  15   -99.00       100.0       100.0       100.0       100.0       100.0       100.0       100.0       100.0       100.0    
       100.00      100.00      100.00       99.99       99.99       100.0       100.0       100.0       100.0       100.0    
        100.0       100.0       100.0       100.0       100.0       100.0       100.0      -99.00      -99.00      -99.00    
       -99.00      -99.00      -99.00    
  16   -99.00       100.0       100.0       100.0       100.0       100.0       100.0       100.0       100.0       100.0    
        100.0      100.00       99.99       99.99      100.00       100.0       100.0       100.0       100.0       100.0    
        100.0       100.0       100.0       100.0       100.0       100.0      -99.00      -99.00      -99.00      -99.00    
       -99.00      -99.00      -99.00    
  17   -99.00       100.0       100.0       100.0       100.0       100.0       100.0       100.0      100.00       99.99    
        99.99       99.99       99.99      100.00       100.0       100.0       100.0       100.0       100.0       100.0    
        100.0       100.0       100.0       100.0       100.0      -99.00      -99.00      -99.00      -99.00      -99.00    
       -99.00      -99.00      -99.00    
  18   -99.00      -99.00       100.0       100.0       100.0       100.0      100.00       99.99       99.99       99.99    
       100.00       100.0       100.0       100.0       100.0       100.0       100.0       100.0       100.0       100.0    
        100.0       100.0       100.0      -99.00      -99.00      -99.00      -99.00      -99.00      -99.00      -99.00    
       -99.00      -99.00      -99.00    
  19   -99.00      -99.00      -99.00      -99.00       100.0       99.99       99.99       99.99      100.00       100.0    
        100.0       100.0      -99.00      -99.00      -99.00      -99.00      -99.00      -99.00      -99.00      -99.00    
       -99.00      -99.00      -99.00      -99.00      -99.00      -99.00      -99.00      -99.00      -99.00      -99.00    
       -99.00      -99.00      -99.00    

 HEAD WILL BE SAVED ON UNIT   51 AT END OF TIME STEP    5, STRESS PERIOD    1

 DRAWDOWN WILL BE SAVED ON UNIT   52 AT END OF TIME STEP    5, STRESS PERIOD    1
1
  VOLUMETRIC BUDGET FOR ENTIRE MODEL AT END OF TIME STEP    5, STRESS PERIOD   1
  ------------------------------------------------------------------------------

     CUMULATIVE VOLUMES      L**3       RATES FOR THIS TIME STEP      L**3/T
     ------------------                 ------------------------

           IN:                                      IN:
           ---                                      ---
             STORAGE =       35589.8203               STORAGE =     1994603.6250
       CONSTANT HEAD =           0.0000         CONSTANT HEAD =           0.0000
               WELLS =           0.0000                 WELLS =           0.0000
       RIVER LEAKAGE =          10.7460         RIVER LEAKAGE =         625.0000
            RECHARGE =          84.5925              RECHARGE =        4920.0000

            TOTAL IN =       35685.1602              TOTAL IN =     2000148.6250

          OUT:                                     OUT:
          ----                                     ----
             STORAGE =       34850.7891               STORAGE =     1951712.7500
       CONSTANT HEAD =       1.8810E-02         CONSTANT HEAD =           1.7717
               WELLS =         601.7762                 WELLS =       35000.0000
       RIVER LEAKAGE =         230.1209         RIVER LEAKAGE =       13230.5781
            RECHARGE =           0.0000              RECHARGE =           0.0000

           TOTAL OUT =       35682.7070             TOTAL OUT =     1999945.1250

            IN - OUT =           2.4531              IN - OUT =         203.5000

 PERCENT DISCREPANCY =           0.01     PERCENT DISCREPANCY =           0.01






         TIME SUMMARY AT END OF TIME STEP    5 IN STRESS PERIOD    1
                    SECONDS     MINUTES      HOURS       DAYS        YEARS
                    -----------------------------------------------------------
   TIME STEP LENGTH  570.27      9.5046     0.15841     6.60039E-03 1.80709E-05
 STRESS PERIOD TIME  1485.5      24.759     0.41265     1.71936E-02 4.70735E-05
         TOTAL TIME  1485.5      24.759     0.41265     1.71936E-02 4.70735E-05
1
 
 SOLVING FOR HEAD 

 OUTPUT CONTROL FOR STRESS PERIOD    1   TIME STEP    6
    SAVE HEAD FOR ALL LAYERS
    SAVE DRAWDOWN FOR ALL LAYERS
    SAVE BUDGET
    PRINT HEAD FOR ALL LAYERS
    PRINT BUDGET
 UBDSV1 SAVING "         STORAGE" ON UNIT  53 AT TIME STEP  6, STRESS PERIOD   1
 UBDSV2 SAVING "   CONSTANT HEAD" ON UNIT  53 AT TIME STEP  6, STRESS PERIOD   1
 UBDSV1 SAVING "FLOW RIGHT FACE " ON UNIT  53 AT TIME STEP  6, STRESS PERIOD   1
 UBDSV1 SAVING "FLOW FRONT FACE " ON UNIT  53 AT TIME STEP  6, STRESS PERIOD   1
1
              HEAD IN LAYER   1 AT END OF TIME STEP   6 IN STRESS PERIOD    1
  ---------------------------------------------------------------------------

            1           2           3           4           5           6           7           8           9          10
           11          12          13          14          15          16          17          18          19          20
           21          22          23          24          25          26          27          28          29          30
           31          32          33
 ........................................................................................................................
   1   -99.00      -99.00      -99.00      -99.00      -99.00      -99.00      -99.00      -99.00      -99.00      -99.00    
       -99.00      -99.00       99.98       99.98       99.97       99.99       99.99       99.99       99.99       99.99    
        100.0       100.0       100.0       100.0       100.0       100.0       100.0       100.0       100.0       100.0    
        100.0       100.0      -99.00    
   2   -99.00      -99.00       100.0       100.0       100.0       100.0       100.0       100.0      100.00       99.97    
        99.11       99.08       99.09       99.09       98.87       99.93      100.00      100.00       100.0       100.0    
        100.0       100.0       100.0       100.0       100.0       100.0       100.0       100.0       100.0       100.0    
        100.0       100.0       100.0    
   3   -99.00       100.0       100.0       100.0       100.0       100.0       100.0       100.0       99.99       99.13    
        66.78       65.92       65.87       65.94       67.84       98.36       99.95      100.00       100.0       100.0    
        100.0       100.0       100.0       100.0       100.0       100.0       100.0       100.0       100.0       100.0    
        100.0       100.0       100.0    
   4    100.0       100.0       100.0       100.0       100.0       100.0       100.0       100.0       99.99       99.09    
        65.92       64.99       63.94       65.01       66.75       98.28       99.94      100.00       100.0       100.0    
        100.0       100.0       100.0       100.0       100.0       100.0       100.0       100.0       100.0       100.0    
        100.0       100.0       100.0    
   5    100.0       100.0       100.0       100.0       100.0       100.0       100.0       100.0       99.99       99.09    
        65.89       64.27       44.30       63.99       66.69       98.26       99.94      100.00       100.0       100.0    
        100.0       100.0       100.0       100.0       100.0       100.0       100.0       100.0       100.0       100.0    
        100.0       100.0       100.0    
   6    100.0       100.0       100.0       100.0       100.0       100.0       100.0      100.00       99.98       99.09    
        65.90       64.97       63.94       64.99       66.70       97.80       99.93      100.00       100.0       100.0    
        100.0       100.0       100.0       100.0       100.0       100.0       100.0       100.0       100.0       100.0    
        100.0       100.0       100.0    
   7    100.0       100.0       100.0       100.0      100.00       100.0       100.0      100.00       99.97       98.80    
        66.18       65.04       64.97       65.05       66.72       98.26       99.94      100.00       100.0       100.0    
        100.0       100.0       100.0       100.0       100.0       100.0       100.0       100.0       100.0       100.0    
        100.0      -99.00      -99.00    
   8    100.0       100.0       100.0      100.00       99.75      100.00       100.0      100.00       99.94       98.29    
        66.71       65.05       64.97       65.05       66.72       98.28       99.94      100.00       100.0       100.0    
        100.0       100.0       100.0       100.0       100.0       100.0       100.0       100.0      -99.00      -99.00    
       -99.00      -99.00      -99.00    
   9    100.0       100.0       100.0       100.0      100.00       100.0       100.0      100.00       99.94       98.28    
        66.72       64.99       63.95       64.99       66.72       98.28       99.94      100.00      100.00       100.0    
        100.0       100.0       100.0       100.0       100.0       100.0       100.0      -99.00      -99.00      -99.00    
       -99.00      -99.00      -99.00    
  10    100.0       100.0       100.0       100.0       100.0       100.0       100.0      100.00       99.94       98.27    
        66.69       64.01       44.63       64.01       66.69       98.28       99.94      100.00       99.88      100.00    
        100.0       100.0       100.0       100.0       100.0       100.0       100.0      -99.00      -99.00      -99.00    
       -99.00      -99.00      -99.00    
  11    100.0       100.0       100.0       100.0       100.0       100.0       100.0      100.00       99.94       98.28    
        66.77       65.05       64.01       65.04       66.77       98.28       99.94      100.00      100.00       100.0    
        100.0       100.0       100.0       100.0       100.0       100.0       100.0      -99.00      -99.00      -99.00    
       -99.00      -99.00      -99.00    
  12    100.0       100.0       100.0       100.0       100.0       100.0       100.0      100.00       99.95       98.38    
        68.34       66.77       66.69       66.77       68.34       98.38       99.95      100.00       100.0       100.0    
        100.0       100.0       100.0       100.0       100.0       100.0       100.0      -99.00      -99.00      -99.00    
       -99.00      -99.00      -99.00    
  13    100.0       100.0       100.0       100.0       100.0       100.0       100.0       100.0      100.00       99.90    
        98.38       98.28       98.27       98.27       98.38       99.90      100.00       100.0       100.0       100.0    
        100.0       100.0       100.0       100.0       100.0       100.0       100.0      -99.00      -99.00      -99.00    
       -99.00      -99.00      -99.00    
  14    100.0       100.0       100.0       100.0       100.0       100.0       100.0       100.0       100.0      100.00    
        99.95       99.94       99.94       99.93       99.94      100.00       100.0       100.0       100.0       100.0    
        100.0       100.0       100.0       100.0       100.0       100.0       100.0      -99.00      -99.00      -99.00    
       -99.00      -99.00      -99.00    
  15   -99.00       100.0       100.0       100.0       100.0       100.0       100.0       100.0       100.0       100.0    
       100.00      100.00      100.00       99.99       99.99      100.00       100.0       100.0       100.0       100.0    
        100.0       100.0       100.0       100.0       100.0       100.0       100.0      -99.00      -99.00      -99.00    
       -99.00      -99.00      -99.00    
  16   -99.00       100.0       100.0       100.0       100.0       100.0       100.0       100.0       100.0      100.00    
       100.00      100.00       99.99       99.99      100.00       100.0       100.0       100.0       100.0       100.0    
        100.0       100.0       100.0       100.0       100.0       100.0      -99.00      -99.00      -99.00      -99.00    
       -99.00      -99.00      -99.00    
  17   -99.00       100.0       100.0       100.0       100.0       100.0       100.0      100.00      100.00       99.99    
        99.99       99.99       99.99      100.00       100.0       100.0       100.0       100.0       100.0       100.0    
        100.0       100.0       100.0       100.0       100.0      -99.00      -99.00      -99.00      -99.00      -99.00    
       -99.00      -99.00      -99.00    
  18   -99.00      -99.00       100.0       100.0       100.0      100.00      100.00       99.99       99.99       99.99    
       100.00      100.00      100.00       100.0       100.0       100.0       100.0       100.0       100.0       100.0    
        100.0       100.0       100.0      -99.00      -99.00      -99.00      -99.00      -99.00      -99.00      -99.00    
       -99.00      -99.00      -99.00    
  19   -99.00      -99.00      -99.00      -99.00      100.00       99.99       99.99       99.99      100.00      100.00    
        100.0       100.0      -99.00      -99.00      -99.00      -99.00      -99.00      -99.00      -99.00      -99.00    
       -99.00      -99.00      -99.00      -99.00      -99.00      -99.00      -99.00      -99.00      -99.00      -99.00    
       -99.00      -99.00      -99.00    

 HEAD WILL BE SAVED ON UNIT   51 AT END OF TIME STEP    6, STRESS PERIOD    1

 DRAWDOWN WILL BE SAVED ON UNIT   52 AT END OF TIME STEP    6, STRESS PERIOD    1
1
  VOLUMETRIC BUDGET FOR ENTIRE MODEL AT END OF TIME STEP    6, STRESS PERIOD   1
  ------------------------------------------------------------------------------

     CUMULATIVE VOLUMES      L**3       RATES FOR THIS TIME STEP      L**3/T
     ------------------                 ------------------------

           IN:                                      IN:
           ---                                      ---
             STORAGE =       54287.4766               STORAGE =     1888540.5000
       CONSTANT HEAD =           0.0000         CONSTANT HEAD =           0.0000
               WELLS =           0.0000                 WELLS =           0.0000
       RIVER LEAKAGE =          16.9339         RIVER LEAKAGE =         625.0000
            RECHARGE =         133.3034              RECHARGE =        4920.0000

            TOTAL IN =       54437.7148              TOTAL IN =     1894085.5000

          OUT:                                     OUT:
          ----                                     ----
             STORAGE =       53128.1094               STORAGE =     1846085.1250
       CONSTANT HEAD =       4.6336E-02         CONSTANT HEAD =           2.7802
               WELLS =         948.2966                 WELLS =       35000.0000
       RIVER LEAKAGE =         358.8290         RIVER LEAKAGE =       13000.0518
            RECHARGE =           0.0000              RECHARGE =           0.0000

           TOTAL OUT =       54435.2812             TOTAL OUT =     1894087.8750

            IN - OUT =           2.4336              IN - OUT =          -2.3750

 PERCENT DISCREPANCY =           0.00     PERCENT DISCREPANCY =          -0.00






         TIME SUMMARY AT END OF TIME STEP    6 IN STRESS PERIOD    1
                    SECONDS     MINUTES      HOURS       DAYS        YEARS
                    -----------------------------------------------------------
   TIME STEP LENGTH  855.41      14.257     0.23761     9.90058E-03 2.71063E-05
 STRESS PERIOD TIME  2340.9      39.016     0.65026     2.70942E-02 7.41799E-05
         TOTAL TIME  2340.9      39.016     0.65026     2.70942E-02 7.41799E-05
1
 
 SOLVING FOR HEAD 

 OUTPUT CONTROL FOR STRESS PERIOD    1   TIME STEP    7
    SAVE HEAD FOR ALL LAYERS
    SAVE DRAWDOWN FOR ALL LAYERS
    SAVE BUDGET
    PRINT HEAD FOR ALL LAYERS
    PRINT BUDGET
 UBDSV1 SAVING "         STORAGE" ON UNIT  53 AT TIME STEP  7, STRESS PERIOD   1
 UBDSV2 SAVING "   CONSTANT HEAD" ON UNIT  53 AT TIME STEP  7, STRESS PERIOD   1
 UBDSV1 SAVING "FLOW RIGHT FACE " ON UNIT  53 AT TIME STEP  7, STRESS PERIOD   1
 UBDSV1 SAVING "FLOW FRONT FACE " ON UNIT  53 AT TIME STEP  7, STRESS PERIOD   1
1
              HEAD IN LAYER   1 AT END OF TIME STEP   7 IN STRESS PERIOD    1
  ---------------------------------------------------------------------------

            1           2           3           4           5           6           7           8           9          10
           11          12          13          14          15          16          17          18          19          20
           21          22          23          24          25          26          27          28          29          30
           31          32          33
 ........................................................................................................................
   1   -99.00      -99.00      -99.00      -99.00      -99.00      -99.00      -99.00      -99.00      -99.00      -99.00    
       -99.00      -99.00       99.97       99.95       99.95       99.98       99.99       99.99       99.99       99.99    
        100.0       100.0       100.0       100.0       100.0       100.0       100.0       100.0       100.0       100.0    
        100.0       100.0      -99.00    
   2   -99.00      -99.00       100.0       100.0       100.0       100.0       100.0       100.0      100.00       99.94    
        98.67       98.60       98.63       98.62       98.35       99.84       99.99      100.00      100.00       100.0    
        100.0       100.0       100.0       100.0       100.0       100.0       100.0       100.0       100.0       100.0    
        100.0       100.0       100.0    
   3   -99.00       100.0       100.0       100.0       100.0       100.0       100.0      100.00       99.97       98.70    
        67.66       66.40       66.30       66.44       69.16       97.65       99.89      100.00       100.0       100.0    
        100.0       100.0       100.0       100.0       100.0       100.0       100.0       100.0       100.0       100.0    
        100.0       100.0       100.0    
   4    100.0       100.0       100.0       100.0       100.0       100.0       100.0      100.00       99.97       98.63    
        66.40       64.99       63.55       65.03       67.61       97.47       99.88      100.00       100.0       100.0    
        100.0       100.0       100.0       100.0       100.0       100.0       100.0       100.0       100.0       100.0    
        100.0       100.0       100.0    
   5    100.0       100.0       100.0       100.0       100.0       100.0       100.0      100.00       99.97       98.63    
        66.34       63.99       46.20       63.67       67.47       97.43       99.87      100.00       100.0       100.0    
        100.0       100.0       100.0       100.0       100.0       100.0       100.0       100.0       100.0       100.0    
        100.0       100.0       100.0    
   6    100.0       100.0       100.0       100.0       100.0       100.0       100.0      100.00       99.95       98.62    
        66.36       64.94       63.55       64.99       67.50       96.77       99.84       99.99       100.0       100.0    
        100.0       100.0       100.0       100.0       100.0       100.0       100.0       100.0       100.0       100.0    
        100.0       100.0       100.0    
   7    100.0       100.0       100.0       100.0       99.99       100.0       100.0      100.00       99.94       98.20    
        66.77       65.08       64.94       65.12       67.54       97.43       99.87      100.00       100.0       100.0    
        100.0       100.0       100.0       100.0       100.0       100.0       100.0       100.0       100.0       100.0    
        100.0      -99.00      -99.00    
   8    100.0       100.0       100.0       99.99       99.62       99.99       100.0      100.00       99.87       97.48    
        67.50       65.11       64.94       65.12       67.54       97.46       99.88      100.00      100.00       100.0    
        100.0       100.0       100.0       100.0       100.0       100.0       100.0       100.0      -99.00      -99.00    
       -99.00      -99.00      -99.00    
   9    100.0       100.0       100.0       100.0       99.99       100.0       100.0      100.00       99.86       97.46    
        67.53       64.99       63.57       64.99       67.53       97.46       99.88       99.99       99.99       100.0    
        100.0       100.0       100.0       100.0       100.0       100.0       100.0      -99.00      -99.00      -99.00    
       -99.00      -99.00      -99.00    
  10    100.0       100.0       100.0       100.0       100.0       100.0       100.0      100.00       99.86       97.45    
        67.47       63.69       46.66       63.69       67.47       97.46       99.88       99.99       99.82      100.00    
        100.0       100.0       100.0       100.0       100.0       100.0       100.0      -99.00      -99.00      -99.00    
       -99.00      -99.00      -99.00    
  11    100.0       100.0       100.0       100.0       100.0       100.0       100.0      100.00       99.87       97.46    
        67.65       65.11       63.70       65.11       67.64       97.47       99.88       99.99       99.99       100.0    
        100.0       100.0       100.0       100.0       100.0       100.0       100.0      -99.00      -99.00      -99.00    
       -99.00      -99.00      -99.00    
  12    100.0       100.0       100.0       100.0       100.0       100.0       100.0      100.00       99.89       97.68    
        69.87       67.65       67.48       67.64       69.86       97.68       99.89      100.00      100.00       100.0    
        100.0       100.0       100.0       100.0       100.0       100.0       100.0      -99.00      -99.00      -99.00    
       -99.00      -99.00      -99.00    
  13    100.0       100.0       100.0       100.0       100.0       100.0       100.0      100.00       99.99       99.79    
        97.68       97.47       97.45       97.46       97.67       99.79       99.99      100.00       100.0       100.0    
        100.0       100.0       100.0       100.0       100.0       100.0       100.0      -99.00      -99.00      -99.00    
       -99.00      -99.00      -99.00    
  14    100.0       100.0       100.0       100.0       100.0       100.0       100.0       100.0      100.00       99.99    
        99.89       99.88       99.88       99.86       99.87       99.99      100.00       100.0       100.0       100.0    
        100.0       100.0       100.0       100.0       100.0       100.0       100.0      -99.00      -99.00      -99.00    
       -99.00      -99.00      -99.00    
  15   -99.00       100.0       100.0       100.0       100.0       100.0       100.0       100.0       100.0      100.00    
       100.00      100.00       99.99       99.98       99.98      100.00       100.0       100.0       100.0       100.0    
        100.0       100.0       100.0       100.0       100.0       100.0       100.0      -99.00      -99.00      -99.00    
       -99.00      -99.00      -99.00    
  16   -99.00       100.0       100.0       100.0       100.0       100.0       100.0       100.0       100.0      100.00    
       100.00      100.00       99.98       99.98      100.00       100.0       100.0       100.0       100.0       100.0    
        100.0       100.0       100.0       100.0       100.0       100.0      -99.00      -99.00      -99.00      -99.00    
       -99.00      -99.00      -99.00    
  17   -99.00       100.0       100.0       100.0       100.0       100.0       100.0      100.00      100.00       99.98    
        99.98       99.98       99.98      100.00       100.0       100.0       100.0       100.0       100.0       100.0    
        100.0       100.0       100.0       100.0       100.0      -99.00      -99.00      -99.00      -99.00      -99.00    
       -99.00      -99.00      -99.00    
  18   -99.00      -99.00       100.0       100.0       100.0      100.00      100.00       99.98       99.98       99.98    
       100.00      100.00      100.00       100.0       100.0       100.0       100.0       100.0       100.0       100.0    
        100.0       100.0       100.0      -99.00      -99.00      -99.00      -99.00      -99.00      -99.00      -99.00    
       -99.00      -99.00      -99.00    
  19   -99.00      -99.00      -99.00      -99.00      100.00       99.98       99.98       99.98      100.00      100.00    
        100.0       100.0      -99.00      -99.00      -99.00      -99.00      -99.00      -99.00      -99.00      -99.00    
       -99.00      -99.00      -99.00      -99.00      -99.00      -99.00      -99.00      -99.00      -99.00      -99.00    
       -99.00      -99.00      -99.00    

 HEAD WILL BE SAVED ON UNIT   51 AT END OF TIME STEP    7, STRESS PERIOD    1

 DRAWDOWN WILL BE SAVED ON UNIT   52 AT END OF TIME STEP    7, STRESS PERIOD    1
1
  VOLUMETRIC BUDGET FOR ENTIRE MODEL AT END OF TIME STEP    7, STRESS PERIOD   1
  ------------------------------------------------------------------------------

     CUMULATIVE VOLUMES      L**3       RATES FOR THIS TIME STEP      L**3/T
     ------------------                 ------------------------

           IN:                                      IN:
           ---                                      ---
             STORAGE =       80219.0859               STORAGE =     1746133.5000
       CONSTANT HEAD =           0.0000         CONSTANT HEAD =           0.0000
               WELLS =           0.0000                 WELLS =           0.0000
       RIVER LEAKAGE =          26.2157         RIVER LEAKAGE =         625.0000
            RECHARGE =         206.3697              RECHARGE =        4920.0000

            TOTAL IN =       80451.6719              TOTAL IN =     1751678.5000

          OUT:                                     OUT:
          ----                                     ----
             STORAGE =       78433.2344               STORAGE =     1703948.2500
       CONSTANT HEAD =           0.1101         CONSTANT HEAD =           4.2953
               WELLS =        1468.0773                 WELLS =       35000.0000
       RIVER LEAKAGE =         546.9658         RIVER LEAKAGE =       12668.3975
            RECHARGE =           0.0000              RECHARGE =           0.0000

           TOTAL OUT =       80448.3906             TOTAL OUT =     1751620.8750

            IN - OUT =           3.2812              IN - OUT =          57.6250

 PERCENT DISCREPANCY =           0.00     PERCENT DISCREPANCY =           0.00






         TIME SUMMARY AT END OF TIME STEP    7 IN STRESS PERIOD    1
                    SECONDS     MINUTES      HOURS       DAYS        YEARS
                    -----------------------------------------------------------
   TIME STEP LENGTH  1283.1      21.385     0.35642     1.48509E-02 4.06595E-05
 STRESS PERIOD TIME  3624.1      60.401      1.0067     4.19451E-02 1.14839E-04
         TOTAL TIME  3624.1      60.401      1.0067     4.19451E-02 1.14839E-04
1
 
 SOLVING FOR HEAD 

 OUTPUT CONTROL FOR STRESS PERIOD    1   TIME STEP    8
    SAVE HEAD FOR ALL LAYERS
    SAVE DRAWDOWN FOR ALL LAYERS
    SAVE BUDGET
    PRINT HEAD FOR ALL LAYERS
    PRINT BUDGET
 UBDSV1 SAVING "         STORAGE" ON UNIT  53 AT TIME STEP  8, STRESS PERIOD   1
 UBDSV2 SAVING "   CONSTANT HEAD" ON UNIT  53 AT TIME STEP  8, STRESS PERIOD   1
 UBDSV1 SAVING "FLOW RIGHT FACE " ON UNIT  53 AT TIME STEP  8, STRESS PERIOD   1
 UBDSV1 SAVING "FLOW FRONT FACE " ON UNIT  53 AT TIME STEP  8, STRESS PERIOD   1
1
              HEAD IN LAYER   1 AT END OF TIME STEP   8 IN STRESS PERIOD    1
  ---------------------------------------------------------------------------

            1           2           3           4           5           6           7           8           9          10
           11          12          13          14          15          16          17          18          19          20
           21          22          23          24          25          26          27          28          29          30
           31          32          33
 ........................................................................................................................
   1   -99.00      -99.00      -99.00      -99.00      -99.00      -99.00      -99.00      -99.00      -99.00      -99.00    
       -99.00      -99.00       99.92       99.91       99.90       99.96       99.98       99.99       99.99       99.99    
       100.00       100.0       100.0       100.0       100.0       100.0       100.0       100.0       100.0       100.0    
        100.0       100.0      -99.00    
   2   -99.00      -99.00       100.0       100.0       100.0       100.0       100.0       100.0       99.99       99.86    
        98.06       97.91       97.97       97.97       97.67       99.68       99.97      100.00      100.00      100.00    
        100.0       100.0       100.0       100.0       100.0       100.0       100.0       100.0       100.0       100.0    
        100.0       100.0       100.0    
   3   -99.00       100.0       100.0       100.0       100.0       100.0       100.0      100.00       99.93       98.13    
        68.89       67.07       66.90       67.17       70.90       96.74       99.77       99.99      100.00       100.0    
        100.0       100.0       100.0       100.0       100.0       100.0       100.0       100.0       100.0       100.0    
        100.0       100.0       100.0    
   4    100.0       100.0       100.0       100.0       100.0       100.0       100.0      100.00       99.92       97.99    
        67.08       65.00       63.15       65.09       68.76       96.40       99.74       99.99      100.00       100.0    
        100.0       100.0       100.0       100.0       100.0       100.0       100.0       100.0       100.0       100.0    
        100.0       100.0       100.0    
   5    100.0       100.0       100.0       100.0       100.0       100.0       100.0      100.00       99.92       97.98    
        66.96       63.68       48.60       63.39       68.50       96.31       99.73       99.98      100.00       100.0    
        100.0       100.0       100.0       100.0       100.0       100.0       100.0       100.0       100.0       100.0    
        100.0       100.0       100.0    
   6    100.0       100.0       100.0       100.0       100.0       100.0       100.0      100.00       99.91       97.96    
        67.00       64.90       63.14       65.00       68.54       95.40       99.67       99.98      100.00       100.0    
        100.0       100.0       100.0       100.0       100.0       100.0       100.0       100.0       100.0       100.0    
        100.0       100.0       100.0    
   7    100.0       100.0       100.0      100.00       99.98      100.00       100.0      100.00       99.88       97.36    
        67.57       65.17       64.89       65.24       68.62       96.31       99.73       99.98      100.00       100.0    
        100.0       100.0       100.0       100.0       100.0       100.0       100.0       100.0       100.0       100.0    
        100.0      -99.00      -99.00    
   8    100.0       100.0       100.0       99.98       99.45       99.98      100.00       99.99       99.73       96.42    
        68.56       65.23       64.89       65.24       68.62       96.37       99.74       99.99      100.00       100.0    
        100.0       100.0       100.0       100.0       100.0       100.0       100.0       100.0      -99.00      -99.00    
       -99.00      -99.00      -99.00    
   9    100.0       100.0       100.0      100.00       99.98      100.00       100.0       99.99       99.72       96.37    
        68.60       65.01       63.19       65.01       68.61       96.37       99.74       99.98       99.98       100.0    
        100.0       100.0       100.0       100.0       100.0       100.0       100.0      -99.00      -99.00      -99.00    
       -99.00      -99.00      -99.00    
  10    100.0       100.0       100.0       100.0       100.0       100.0       100.0       99.99       99.72       96.36    
        68.51       63.44       49.19       63.44       68.51       96.37       99.74       99.97       99.75       99.99    
        100.0       100.0       100.0       100.0       100.0       100.0       100.0      -99.00      -99.00      -99.00    
       -99.00      -99.00      -99.00    
  11    100.0       100.0       100.0       100.0       100.0       100.0       100.0       99.99       99.73       96.40    
        68.84       65.27       63.45       65.27       68.83       96.41       99.74       99.98       99.98       100.0    
        100.0       100.0       100.0       100.0       100.0       100.0       100.0      -99.00      -99.00      -99.00    
       -99.00      -99.00      -99.00    
  12    100.0       100.0       100.0       100.0       100.0       100.0       100.0       99.99       99.77       96.80    
        71.83       68.84       68.52       68.83       71.82       96.80       99.77       99.99      100.00       100.0    
        100.0       100.0       100.0       100.0       100.0       100.0       100.0      -99.00      -99.00      -99.00    
       -99.00      -99.00      -99.00    
  13    100.0       100.0       100.0       100.0       100.0       100.0       100.0      100.00       99.97       99.57    
        96.80       96.41       96.36       96.39       96.80       99.57       99.97      100.00       100.0       100.0    
        100.0       100.0       100.0       100.0       100.0       100.0       100.0      -99.00      -99.00      -99.00    
       -99.00      -99.00      -99.00    
  14    100.0       100.0       100.0       100.0       100.0       100.0       100.0       100.0      100.00       99.97    
        99.77       99.74       99.74       99.72       99.75       99.96      100.00       100.0       100.0       100.0    
        100.0       100.0       100.0       100.0       100.0       100.0       100.0      -99.00      -99.00      -99.00    
       -99.00      -99.00      -99.00    
  15   -99.00       100.0       100.0       100.0       100.0       100.0       100.0       100.0       100.0      100.00    
        99.99       99.99       99.98       99.96       99.96      100.00       100.0       100.0       100.0       100.0    
        100.0       100.0       100.0       100.0       100.0       100.0       100.0      -99.00      -99.00      -99.00    
       -99.00      -99.00      -99.00    
  16   -99.00       100.0       100.0       100.0       100.0       100.0       100.0       100.0       100.0      100.00    
       100.00      100.00       99.97       99.97      100.00       100.0       100.0       100.0       100.0       100.0    
        100.0       100.0       100.0       100.0       100.0       100.0      -99.00      -99.00      -99.00      -99.00    
       -99.00      -99.00      -99.00    
  17   -99.00       100.0       100.0       100.0       100.0       100.0       100.0      100.00      100.00       99.97    
        99.97       99.97       99.97      100.00       100.0       100.0       100.0       100.0       100.0       100.0    
        100.0       100.0       100.0       100.0       100.0      -99.00      -99.00      -99.00      -99.00      -99.00    
       -99.00      -99.00      -99.00    
  18   -99.00      -99.00       100.0       100.0       100.0      100.00      100.00       99.97       99.97       99.97    
       100.00      100.00      100.00       100.0       100.0       100.0       100.0       100.0       100.0       100.0    
        100.0       100.0       100.0      -99.00      -99.00      -99.00      -99.00      -99.00      -99.00      -99.00    
       -99.00      -99.00      -99.00    
  19   -99.00      -99.00      -99.00      -99.00      100.00       99.97       99.97       99.97      100.00      100.00    
        100.0       100.0      -99.00      -99.00      -99.00      -99.00      -99.00      -99.00      -99.00      -99.00    
       -99.00      -99.00      -99.00      -99.00      -99.00      -99.00      -99.00      -99.00      -99.00      -99.00    
       -99.00      -99.00      -99.00    

 HEAD WILL BE SAVED ON UNIT   51 AT END OF TIME STEP    8, STRESS PERIOD    1

 DRAWDOWN WILL BE SAVED ON UNIT   52 AT END OF TIME STEP    8, STRESS PERIOD    1
1
  VOLUMETRIC BUDGET FOR ENTIRE MODEL AT END OF TIME STEP    8, STRESS PERIOD   1
  ------------------------------------------------------------------------------

     CUMULATIVE VOLUMES      L**3       RATES FOR THIS TIME STEP      L**3/T
     ------------------                 ------------------------

           IN:                                      IN:
           ---                                      ---
             STORAGE =      115113.9531               STORAGE =     1566456.3750
       CONSTANT HEAD =           0.0000         CONSTANT HEAD =           0.0000
               WELLS =           0.0000                 WELLS =           0.0000
       RIVER LEAKAGE =          40.1384         RIVER LEAKAGE =         625.0000
            RECHARGE =         315.9692              RECHARGE =        4920.0000

            TOTAL IN =      115470.0625              TOTAL IN =     1572001.3750

          OUT:                                     OUT:
          ----                                     ----
             STORAGE =      112399.6562               STORAGE =     1524777.6250
       CONSTANT HEAD =           0.2554         CONSTANT HEAD =           6.5213
               WELLS =        2247.7480                 WELLS =       35000.0000
       RIVER LEAKAGE =         818.7479         RIVER LEAKAGE =       12200.5029
            RECHARGE =           0.0000              RECHARGE =           0.0000

           TOTAL OUT =      115466.4141             TOTAL OUT =     1571984.6250

            IN - OUT =           3.6484              IN - OUT =          16.7500

 PERCENT DISCREPANCY =           0.00     PERCENT DISCREPANCY =           0.00






         TIME SUMMARY AT END OF TIME STEP    8 IN STRESS PERIOD    1
                    SECONDS     MINUTES      HOURS       DAYS        YEARS
                    -----------------------------------------------------------
   TIME STEP LENGTH  1924.7      32.078     0.53463     2.22763E-02 6.09892E-05
 STRESS PERIOD TIME  5548.7      92.479      1.5413     6.42214E-02 1.75829E-04
         TOTAL TIME  5548.7      92.479      1.5413     6.42214E-02 1.75829E-04
1
 
 SOLVING FOR HEAD 

 OUTPUT CONTROL FOR STRESS PERIOD    1   TIME STEP    9
    SAVE HEAD FOR ALL LAYERS
    SAVE DRAWDOWN FOR ALL LAYERS
    SAVE BUDGET
    PRINT HEAD FOR ALL LAYERS
    PRINT BUDGET
 UBDSV1 SAVING "         STORAGE" ON UNIT  53 AT TIME STEP  9, STRESS PERIOD   1
 UBDSV2 SAVING "   CONSTANT HEAD" ON UNIT  53 AT TIME STEP  9, STRESS PERIOD   1
 UBDSV1 SAVING "FLOW RIGHT FACE " ON UNIT  53 AT TIME STEP  9, STRESS PERIOD   1
 UBDSV1 SAVING "FLOW FRONT FACE " ON UNIT  53 AT TIME STEP  9, STRESS PERIOD   1
1
              HEAD IN LAYER   1 AT END OF TIME STEP   9 IN STRESS PERIOD    1
  ---------------------------------------------------------------------------

            1           2           3           4           5           6           7           8           9          10
           11          12          13          14          15          16          17          18          19          20
           21          22          23          24          25          26          27          28          29          30
           31          32          33
 ........................................................................................................................
   1   -99.00      -99.00      -99.00      -99.00      -99.00      -99.00      -99.00      -99.00      -99.00      -99.00    
       -99.00      -99.00       99.83       99.81       99.79       99.92       99.97       99.98       99.98       99.98    
       100.00       100.0       100.0       100.0       100.0       100.0       100.0       100.0       100.0       100.0    
        100.0       100.0      -99.00    
   2   -99.00      -99.00       100.0       100.0       100.0       100.0       100.0       100.0       99.98       99.71    
        97.24       96.96       97.08       97.08       96.84       99.39       99.92       99.99      100.00      100.00    
        100.0       100.0       100.0       100.0       100.0       100.0       100.0       100.0       100.0       100.0    
        100.0       100.0       100.0    
   3   -99.00       100.0       100.0       100.0       100.0       100.0       100.0       99.99       99.86       97.38    
        70.52       68.02       67.69       68.20       73.07       95.69       99.56       99.96      100.00       100.0    
        100.0       100.0       100.0       100.0       100.0       100.0       100.0       100.0       100.0       100.0    
        100.0       100.0       100.0    
   4    100.0       100.0       100.0       100.0       100.0       100.0       100.0       99.99       99.84       97.11    
        68.03       65.05       62.86       65.26       70.24       95.06       99.48       99.96      100.00       100.0    
        100.0       100.0       100.0       100.0       100.0       100.0       100.0       100.0       100.0       100.0    
        100.0       100.0       100.0    
   5    100.0       100.0       100.0       100.0       100.0       100.0       100.0       99.99       99.84       97.09    
        67.80       63.41       51.45       63.28       69.77       94.87       99.45       99.95      100.00       100.0    
        100.0       100.0       100.0       100.0       100.0       100.0       100.0       100.0       100.0       100.0    
        100.0       100.0       100.0    
   6    100.0       100.0       100.0       100.0      100.00       100.0       100.0       99.99       99.81       97.04    
        67.88       64.87       62.81       65.07       69.82       93.67       99.35       99.95      100.00       100.0    
        100.0       100.0       100.0       100.0       100.0       100.0       100.0       100.0       100.0       100.0    
        100.0       100.0       100.0    
   7    100.0       100.0       100.0      100.00       99.96      100.00       100.0       99.99       99.75       96.22    
        68.63       65.33       64.83       65.47       69.97       94.88       99.45       99.95      100.00       100.0    
        100.0       100.0       100.0       100.0       100.0       100.0       100.0       100.0       100.0       100.0    
        100.0      -99.00      -99.00    
   8    100.0       100.0      100.00       99.96       99.21       99.96      100.00       99.97       99.46       95.07    
        69.87       65.46       64.85       65.48       69.99       94.99       99.47       99.96       99.99       100.0    
        100.0       100.0       100.0       100.0       100.0       100.0       100.0       100.0      -99.00      -99.00    
       -99.00      -99.00      -99.00    
   9    100.0       100.0       100.0      100.00       99.96      100.00      100.00       99.97       99.44       95.00    
        69.94       65.09       62.90       65.10       69.95       95.00       99.47       99.95       99.96      100.00    
        100.0       100.0       100.0       100.0       100.0       100.0       100.0      -99.00      -99.00      -99.00    
       -99.00      -99.00      -99.00    
  10    100.0       100.0       100.0       100.0      100.00       100.0      100.00       99.97       99.44       94.98    
        69.81       63.38       52.16       63.38       69.81       94.99       99.47       99.92       99.65       99.98    
        100.0       100.0       100.0       100.0       100.0       100.0       100.0      -99.00      -99.00      -99.00    
       -99.00      -99.00      -99.00    
  11    100.0       100.0       100.0       100.0       100.0       100.0      100.00       99.97       99.47       95.08    
        70.39       65.61       63.42       65.61       70.38       95.09       99.48       99.95       99.96      100.00    
        100.0       100.0       100.0       100.0       100.0       100.0       100.0      -99.00      -99.00      -99.00    
       -99.00      -99.00      -99.00    
  12    100.0       100.0       100.0       100.0       100.0       100.0      100.00       99.97       99.55       95.79    
        74.20       70.39       69.85       70.38       74.20       95.79       99.57       99.96      100.00       100.0    
        100.0       100.0       100.0       100.0       100.0       100.0       100.0      -99.00      -99.00      -99.00    
       -99.00      -99.00      -99.00    
  13    100.0       100.0       100.0       100.0       100.0       100.0       100.0       99.99       99.91       99.21    
        95.79       95.09       94.99       95.07       95.79       99.21       99.91       99.99       100.0       100.0    
        100.0       100.0       100.0       100.0       100.0       100.0       100.0      -99.00      -99.00      -99.00    
       -99.00      -99.00      -99.00    
  14    100.0       100.0       100.0       100.0       100.0       100.0       100.0      100.00       99.99       99.91    
        99.57       99.48       99.47       99.45       99.53       99.90       99.99      100.00       100.0       100.0    
        100.0       100.0       100.0       100.0       100.0       100.0       100.0      -99.00      -99.00      -99.00    
       -99.00      -99.00      -99.00    
  15   -99.00       100.0       100.0       100.0       100.0       100.0       100.0       100.0      100.00       99.99    
        99.96       99.96       99.95       99.92       99.93       99.99      100.00       100.0       100.0       100.0    
        100.0       100.0       100.0       100.0       100.0       100.0       100.0      -99.00      -99.00      -99.00    
       -99.00      -99.00      -99.00    
  16   -99.00       100.0       100.0       100.0       100.0       100.0       100.0       100.0       100.0      100.00    
        99.99       99.99       99.96       99.96       99.99      100.00       100.0       100.0       100.0       100.0    
        100.0       100.0       100.0       100.0       100.0       100.0      -99.00      -99.00      -99.00      -99.00    
       -99.00      -99.00      -99.00    
  17   -99.00       100.0       100.0       100.0       100.0       100.0       100.0      100.00       99.99       99.96    
        99.96       99.96       99.96       99.99      100.00       100.0       100.0       100.0       100.0       100.0    
        100.0       100.0       100.0       100.0       100.0      -99.00      -99.00      -99.00      -99.00      -99.00    
       -99.00      -99.00      -99.00    
  18   -99.00      -99.00       100.0       100.0       100.0      100.00       99.99       99.96       99.96       99.96    
        99.99      100.00      100.00       100.0       100.0       100.0       100.0       100.0       100.0       100.0    
        100.0       100.0       100.0      -99.00      -99.00      -99.00      -99.00      -99.00      -99.00      -99.00    
       -99.00      -99.00      -99.00    
  19   -99.00      -99.00      -99.00      -99.00      100.00       99.96       99.96       99.96       99.99      100.00    
        100.0       100.0      -99.00      -99.00      -99.00      -99.00      -99.00      -99.00      -99.00      -99.00    
       -99.00      -99.00      -99.00      -99.00      -99.00      -99.00      -99.00      -99.00      -99.00      -99.00    
       -99.00      -99.00      -99.00    

 HEAD WILL BE SAVED ON UNIT   51 AT END OF TIME STEP    9, STRESS PERIOD    1

 DRAWDOWN WILL BE SAVED ON UNIT   52 AT END OF TIME STEP    9, STRESS PERIOD    1
1
  VOLUMETRIC BUDGET FOR ENTIRE MODEL AT END OF TIME STEP    9, STRESS PERIOD   1
  ------------------------------------------------------------------------------

     CUMULATIVE VOLUMES      L**3       RATES FOR THIS TIME STEP      L**3/T
     ------------------                 ------------------------

           IN:                                      IN:
           ---                                      ---
             STORAGE =      160324.7969               STORAGE =     1353031.8750
       CONSTANT HEAD =           0.0000         CONSTANT HEAD =           0.0000
               WELLS =           0.0000                 WELLS =           0.0000
       RIVER LEAKAGE =          61.0224         RIVER LEAKAGE =         625.0000
            RECHARGE =         480.3683              RECHARGE =        4920.0000

            TOTAL IN =      160866.1875              TOTAL IN =     1358576.8750

          OUT:                                     OUT:
          ----                                     ----
             STORAGE =      156238.5156               STORAGE =     1311972.5000
       CONSTANT HEAD =           0.5819         CONSTANT HEAD =           9.7706
               WELLS =        3417.2544                 WELLS =       35000.0000
       RIVER LEAKAGE =        1204.9639         RIVER LEAKAGE =       11558.3457
            RECHARGE =           0.0000              RECHARGE =           0.0000

           TOTAL OUT =      160861.3125             TOTAL OUT =     1358540.6250

            IN - OUT =           4.8750              IN - OUT =          36.2500

 PERCENT DISCREPANCY =           0.00     PERCENT DISCREPANCY =           0.00






         TIME SUMMARY AT END OF TIME STEP    9 IN STRESS PERIOD    1
                    SECONDS     MINUTES      HOURS       DAYS        YEARS
                    -----------------------------------------------------------
   TIME STEP LENGTH  2887.0      48.117     0.80195     3.34145E-02 9.14838E-05
 STRESS PERIOD TIME  8435.7      140.60      2.3433     9.76359E-02 2.67312E-04
         TOTAL TIME  8435.7      140.60      2.3433     9.76359E-02 2.67312E-04
1
 
 SOLVING FOR HEAD 

 OUTPUT CONTROL FOR STRESS PERIOD    1   TIME STEP   10
    SAVE HEAD FOR ALL LAYERS
    SAVE DRAWDOWN FOR ALL LAYERS
    SAVE BUDGET
    PRINT HEAD FOR ALL LAYERS
    PRINT BUDGET
 UBDSV1 SAVING "         STORAGE" ON UNIT  53 AT TIME STEP 10, STRESS PERIOD   1
 UBDSV2 SAVING "   CONSTANT HEAD" ON UNIT  53 AT TIME STEP 10, STRESS PERIOD   1
 UBDSV1 SAVING "FLOW RIGHT FACE " ON UNIT  53 AT TIME STEP 10, STRESS PERIOD   1
 UBDSV1 SAVING "FLOW FRONT FACE " ON UNIT  53 AT TIME STEP 10, STRESS PERIOD   1
1
              HEAD IN LAYER   1 AT END OF TIME STEP  10 IN STRESS PERIOD    1
  ---------------------------------------------------------------------------

            1           2           3           4           5           6           7           8           9          10
           11          12          13          14          15          16          17          18          19          20
           21          22          23          24          25          26          27          28          29          30
           31          32          33
 ........................................................................................................................
   1   -99.00      -99.00      -99.00      -99.00      -99.00      -99.00      -99.00      -99.00      -99.00      -99.00    
       -99.00      -99.00       99.64       99.61       99.61       99.82       99.93       99.96       99.97       99.97    
       100.00       100.0       100.0       100.0       100.0       100.0       100.0       100.0       100.0       100.0    
        100.0       100.0      -99.00    
   2   -99.00      -99.00       100.0       100.0       100.0       100.0       100.0      100.00       99.95       99.43    
        96.19       95.67       95.89       95.94       95.87       98.93       99.80       99.97       99.99      100.00    
        100.0       100.0       100.0       100.0       100.0       100.0       100.0       100.0       100.0       100.0    
        100.0       100.0       100.0    
   3   -99.00       100.0       100.0       100.0       100.0       100.0       100.0       99.98       99.72       96.47    
        72.57       69.28       68.73       69.61       75.58       94.58       99.21       99.91       99.99       100.0    
        100.0       100.0       100.0       100.0       100.0       100.0       100.0       100.0       100.0       100.0    
        100.0       100.0       100.0    
   4    100.0       100.0       100.0       100.0       100.0       100.0       100.0       99.98       99.67       95.98    
        69.31       65.21       62.86       65.67       72.04       93.53       99.03       99.88       99.99       100.0    
        100.0       100.0       100.0       100.0       100.0       100.0       100.0       100.0       100.0       100.0    
        100.0       100.0       100.0    
   5    100.0       100.0       100.0       100.0       100.0       100.0       100.0       99.98       99.66       95.92    
        68.90       63.31       54.58       63.55       71.27       93.15       98.95       99.87       99.99       100.0    
        100.0       100.0       100.0       100.0       100.0       100.0       100.0       100.0       100.0       100.0    
        100.0       100.0       100.0    
   6    100.0       100.0       100.0       100.0      100.00       100.0      100.00       99.98       99.62       95.84    
        69.00       64.89       62.69       65.30       71.29       91.65       98.78       99.86       99.99       100.0    
        100.0       100.0       100.0       100.0       100.0       100.0       100.0       100.0       100.0       100.0    
        100.0       100.0       100.0    
   7    100.0       100.0       100.0       99.99       99.92       99.99      100.00       99.97       99.50       94.77    
        69.94       65.63       64.81       65.88       71.55       93.16       98.95       99.87       99.99       100.0    
        100.0       100.0       100.0       100.0       100.0       100.0       100.0       100.0       100.0       100.0    
        100.0      -99.00      -99.00    
   8    100.0       100.0      100.00       99.92       98.91       99.92       99.99       99.91       98.99       93.48    
        71.39       65.84       64.85       65.89       71.59       93.36       98.99       99.88       99.98       100.0    
        100.0       100.0       100.0       100.0       100.0       100.0       100.0       100.0      -99.00      -99.00    
       -99.00      -99.00      -99.00    
   9    100.0       100.0       100.0       99.99       99.92       99.99      100.00       99.91       98.94       93.37    
        71.49       65.35       62.85       65.35       71.51       93.37       98.99       99.87       99.93      100.00    
        100.0       100.0       100.0       100.0       100.0       100.0       100.0      -99.00      -99.00      -99.00    
       -99.00      -99.00      -99.00    
  10    100.0       100.0       100.0       100.0      100.00       100.0      100.00       99.91       98.94       93.36    
        71.36       63.73       55.41       63.73       71.36       93.37       98.99       99.82       99.53       99.97    
        100.0       100.0       100.0       100.0       100.0       100.0       100.0      -99.00      -99.00      -99.00    
       -99.00      -99.00      -99.00    
  11    100.0       100.0       100.0       100.0       100.0       100.0      100.00       99.91       99.00       93.58    
        72.29       66.31       63.84       66.30       72.28       93.59       99.04       99.87       99.93      100.00    
        100.0       100.0       100.0       100.0       100.0       100.0       100.0      -99.00      -99.00      -99.00    
       -99.00      -99.00      -99.00    
  12    100.0       100.0       100.0       100.0       100.0       100.0      100.00       99.93       99.19       94.73    
        76.87       72.30       71.46       72.29       76.86       94.73       99.22       99.91       99.98       100.0    
        100.0       100.0       100.0       100.0       100.0       100.0       100.0      -99.00      -99.00      -99.00    
       -99.00      -99.00      -99.00    
  13    100.0       100.0       100.0       100.0       100.0       100.0      100.00       99.98       99.77       98.65    
        94.73       93.60       93.39       93.58       94.72       98.65       99.78       99.97      100.00       100.0    
        100.0       100.0       100.0       100.0       100.0       100.0       100.0      -99.00      -99.00      -99.00    
       -99.00      -99.00      -99.00    
  14    100.0       100.0       100.0       100.0       100.0       100.0       100.0      100.00       99.96       99.78    
        99.22       99.04       99.00       98.99       99.18       99.77       99.96      100.00       100.0       100.0    
        100.0       100.0       100.0       100.0       100.0       100.0       100.0      -99.00      -99.00      -99.00    
       -99.00      -99.00      -99.00    
  15   -99.00       100.0       100.0       100.0       100.0       100.0       100.0       100.0       99.99       99.97    
        99.91       99.88       99.87       99.83       99.86       99.97       99.99       100.0       100.0       100.0    
        100.0       100.0       100.0       100.0       100.0       100.0       100.0      -99.00      -99.00      -99.00    
       -99.00      -99.00      -99.00    
  16   -99.00       100.0       100.0       100.0       100.0       100.0       100.0       100.0      100.00       99.99    
        99.98       99.98       99.94       99.94       99.98      100.00       100.0       100.0       100.0       100.0    
        100.0       100.0       100.0       100.0       100.0       100.0      -99.00      -99.00      -99.00      -99.00    
       -99.00      -99.00      -99.00    
  17   -99.00       100.0       100.0       100.0       100.0       100.0      100.00       99.99       99.99       99.95    
        99.95       99.95       99.95       99.99      100.00       100.0       100.0       100.0       100.0       100.0    
        100.0       100.0       100.0       100.0       100.0      -99.00      -99.00      -99.00      -99.00      -99.00    
       -99.00      -99.00      -99.00    
  18   -99.00      -99.00       100.0       100.0      100.00       99.99       99.99       99.95       99.95       99.95    
        99.99       99.99       99.99      100.00       100.0       100.0       100.0       100.0       100.0       100.0    
        100.0       100.0       100.0      -99.00      -99.00      -99.00      -99.00      -99.00      -99.00      -99.00    
       -99.00      -99.00      -99.00    
  19   -99.00      -99.00      -99.00      -99.00       99.99       99.95       99.94       99.94       99.99       99.99    
       100.00       100.0      -99.00      -99.00      -99.00      -99.00      -99.00      -99.00      -99.00      -99.00    
       -99.00      -99.00      -99.00      -99.00      -99.00      -99.00      -99.00      -99.00      -99.00      -99.00    
       -99.00      -99.00      -99.00    

 HEAD WILL BE SAVED ON UNIT   51 AT END OF TIME STEP   10, STRESS PERIOD    1

 DRAWDOWN WILL BE SAVED ON UNIT   52 AT END OF TIME STEP   10, STRESS PERIOD    1
1
  VOLUMETRIC BUDGET FOR ENTIRE MODEL AT END OF TIME STEP   10, STRESS PERIOD   1
  ------------------------------------------------------------------------------

     CUMULATIVE VOLUMES      L**3       RATES FOR THIS TIME STEP      L**3/T
     ------------------                 ------------------------

           IN:                                      IN:
           ---                                      ---
             STORAGE =      217779.4062               STORAGE =     1146302.0000
       CONSTANT HEAD =           0.0000         CONSTANT HEAD =           0.0000
               WELLS =           0.0000                 WELLS =           0.0000
       RIVER LEAKAGE =          93.9505         RIVER LEAKAGE =         656.9627
            RECHARGE =         726.9671              RECHARGE =        4920.0000

            TOTAL IN =      218600.3281              TOTAL IN =     1151879.0000

          OUT:                                     OUT:
          ----                                     ----
             STORAGE =      211678.4219               STORAGE =     1106105.8750
       CONSTANT HEAD =           1.3088         CONSTANT HEAD =          14.5036
               WELLS =        5171.5137                 WELLS =       35000.0000
       RIVER LEAKAGE =        1743.3363         RIVER LEAKAGE =       10741.3037
            RECHARGE =           0.0000              RECHARGE =           0.0000

           TOTAL OUT =      218594.5938             TOTAL OUT =     1151861.6250

            IN - OUT =           5.7344              IN - OUT =          17.3750

 PERCENT DISCREPANCY =           0.00     PERCENT DISCREPANCY =           0.00






         TIME SUMMARY AT END OF TIME STEP   10 IN STRESS PERIOD    1
                    SECONDS     MINUTES      HOURS       DAYS        YEARS
                    -----------------------------------------------------------
   TIME STEP LENGTH  4330.5      72.175      1.2029     5.01217E-02 1.37226E-04
 STRESS PERIOD TIME  12766.      212.77      3.5462     0.14776     4.04538E-04
         TOTAL TIME  12766.      212.77      3.5462     0.14776     4.04538E-04
1
 
 SOLVING FOR HEAD 

 OUTPUT CONTROL FOR STRESS PERIOD    1   TIME STEP   11
    SAVE HEAD FOR ALL LAYERS
    SAVE DRAWDOWN FOR ALL LAYERS
    SAVE BUDGET
    PRINT HEAD FOR ALL LAYERS
    PRINT BUDGET
 UBDSV1 SAVING "         STORAGE" ON UNIT  53 AT TIME STEP 11, STRESS PERIOD   1
 UBDSV2 SAVING "   CONSTANT HEAD" ON UNIT  53 AT TIME STEP 11, STRESS PERIOD   1
 UBDSV1 SAVING "FLOW RIGHT FACE " ON UNIT  53 AT TIME STEP 11, STRESS PERIOD   1
 UBDSV1 SAVING "FLOW FRONT FACE " ON UNIT  53 AT TIME STEP 11, STRESS PERIOD   1
1
              HEAD IN LAYER   1 AT END OF TIME STEP  11 IN STRESS PERIOD    1
  ---------------------------------------------------------------------------

            1           2           3           4           5           6           7           8           9          10
           11          12          13          14          15          16          17          18          19          20
           21          22          23          24          25          26          27          28          29          30
           31          32          33
 ........................................................................................................................
   1   -99.00      -99.00      -99.00      -99.00      -99.00      -99.00      -99.00      -99.00      -99.00      -99.00    
       -99.00      -99.00       99.27       99.25       99.29       99.60       99.85       99.93       99.95       99.96    
       100.00       100.0       100.0       100.0       100.0       100.0       100.0       100.0       100.0       100.0    
        100.0       100.0      -99.00    
   2   -99.00      -99.00       100.0       100.0       100.0       100.0       100.0       99.99       99.86       98.93    
        94.93       94.03       94.41       94.57       94.86       98.27       99.57       99.91       99.98       99.99    
        100.0       100.0       100.0       100.0       100.0       100.0       100.0       100.0       100.0       100.0    
        100.0       100.0       100.0    
   3   -99.00       100.0       100.0       100.0       100.0       100.0      100.00       99.95       99.47       95.44    
        75.00       70.88       70.06       71.44       78.23       93.53       98.68       99.78       99.97      100.00    
        100.0       100.0       100.0       100.0       100.0       100.0       100.0       100.0       100.0       100.0    
        100.0       100.0       100.0    
   4    100.0       100.0       100.0       100.0       100.0       100.0      100.00       99.94       99.36       94.61    
        70.95       65.62       63.38       66.51       74.05       91.94       98.31       99.71       99.96      100.00    
        100.0       100.0       100.0       100.0       100.0       100.0       100.0       100.0       100.0       100.0    
        100.0       100.0       100.0    
   5    100.0       100.0       100.0       100.0       100.0       100.0      100.00       99.94       99.34       94.46    
        70.27       63.55       57.77       64.37       72.91       91.25       98.14       99.68       99.95      100.00    
        100.0       100.0       100.0       100.0       100.0       100.0       100.0       100.0       100.0       100.0    
        100.0       100.0       100.0    
   6    100.0       100.0       100.0      100.00       99.99      100.00      100.00       99.93       99.27       94.32    
        70.38       65.10       62.96       65.81       72.81       89.45       97.86       99.64       99.95      100.00    
        100.0       100.0       100.0       100.0       100.0       100.0       100.0       100.0       100.0       100.0    
        100.0       100.0       100.0    
   7    100.0       100.0      100.00       99.98       99.85       99.98       99.99       99.90       99.03       93.02    
        71.44       66.14       64.94       66.54       73.21       91.26       98.13       99.68       99.95      100.00    
        100.0       100.0       100.0       100.0       100.0       100.0       100.0       100.0       100.0       100.0    
        100.0      -99.00      -99.00    
   8    100.0       100.0       99.99       99.85       98.55       99.85       99.97       99.78       98.22       91.75    
        73.01       66.47       65.02       66.57       73.30       91.57       98.21       99.69       99.94      100.00    
        100.0       100.0       100.0       100.0       100.0       100.0       100.0       100.0      -99.00      -99.00    
       -99.00      -99.00      -99.00    
   9    100.0       100.0      100.00       99.98       99.85       99.98       99.98       99.76       98.12       91.60    
        73.15       65.93       63.25       65.95       73.19       91.60       98.22       99.67       99.85       99.99    
        100.0       100.0       100.0       100.0       100.0       100.0       100.0      -99.00      -99.00      -99.00    
       -99.00      -99.00      -99.00    
  10    100.0       100.0       100.0      100.00       99.99      100.00       99.98       99.76       98.13       91.62    
        73.10       64.71       58.79       64.72       73.10       91.64       98.23       99.60       99.37       99.94    
       100.00       100.0       100.0       100.0       100.0       100.0       100.0      -99.00      -99.00      -99.00    
       -99.00      -99.00      -99.00    
  11    100.0       100.0       100.0       100.0       100.0       100.0       99.98       99.78       98.26       92.06    
        74.47       67.57       64.95       67.56       74.46       92.07       98.34       99.69       99.85       99.99    
        100.0       100.0       100.0       100.0       100.0       100.0       100.0      -99.00      -99.00      -99.00    
       -99.00      -99.00      -99.00    
  12    100.0       100.0       100.0       100.0       100.0       100.0       99.99       99.83       98.65       93.72    
        79.59       74.50       73.32       74.49       79.58       93.73       98.70       99.78       99.95      100.00    
        100.0       100.0       100.0       100.0       100.0       100.0       100.0      -99.00      -99.00      -99.00    
       -99.00      -99.00      -99.00    
  13    100.0       100.0       100.0       100.0       100.0       100.0       99.99       99.92       99.52       97.89    
        93.73       92.09       91.72       92.07       93.72       97.89       99.52       99.91       99.99       100.0    
        100.0       100.0       100.0       100.0       100.0       100.0       100.0      -99.00      -99.00      -99.00    
       -99.00      -99.00      -99.00    
  14    100.0       100.0       100.0       100.0       100.0       100.0      100.00       99.98       99.88       99.52    
        98.71       98.34       98.25       98.29       98.65       99.51       99.88       99.98      100.00       100.0    
        100.0       100.0       100.0       100.0       100.0       100.0       100.0      -99.00      -99.00      -99.00    
       -99.00      -99.00      -99.00    
  15   -99.00       100.0       100.0       100.0       100.0       100.0       100.0      100.00       99.98       99.91    
        99.78       99.72       99.68       99.65       99.72       99.90       99.98      100.00       100.0       100.0    
        100.0       100.0       100.0       100.0       100.0       100.0       100.0      -99.00      -99.00      -99.00    
       -99.00      -99.00      -99.00    
  16   -99.00       100.0       100.0       100.0       100.0       100.0       100.0      100.00       99.99       99.97    
        99.95       99.94       99.89       99.89       99.95       99.98      100.00       100.0       100.0       100.0    
        100.0       100.0       100.0       100.0       100.0       100.0      -99.00      -99.00      -99.00      -99.00    
       -99.00      -99.00      -99.00    
  17   -99.00       100.0       100.0       100.0       100.0      100.00      100.00       99.99       99.98       99.93    
        99.93       99.92       99.92       99.97       99.99      100.00       100.0       100.0       100.0       100.0    
        100.0       100.0       100.0       100.0       100.0      -99.00      -99.00      -99.00      -99.00      -99.00    
       -99.00      -99.00      -99.00    
  18   -99.00      -99.00       100.0       100.0      100.00       99.99       99.98       99.92       99.93       99.93    
        99.98       99.99       99.99      100.00       100.0       100.0       100.0       100.0       100.0       100.0    
        100.0       100.0       100.0      -99.00      -99.00      -99.00      -99.00      -99.00      -99.00      -99.00    
       -99.00      -99.00      -99.00    
  19   -99.00      -99.00      -99.00      -99.00       99.99       99.93       99.91       99.91       99.97       99.98    
       100.00      100.00      -99.00      -99.00      -99.00      -99.00      -99.00      -99.00      -99.00      -99.00    
       -99.00      -99.00      -99.00      -99.00      -99.00      -99.00      -99.00      -99.00      -99.00      -99.00    
       -99.00      -99.00      -99.00    

 HEAD WILL BE SAVED ON UNIT   51 AT END OF TIME STEP   11, STRESS PERIOD    1

 DRAWDOWN WILL BE SAVED ON UNIT   52 AT END OF TIME STEP   11, STRESS PERIOD    1
1
  VOLUMETRIC BUDGET FOR ENTIRE MODEL AT END OF TIME STEP   11, STRESS PERIOD   1
  ------------------------------------------------------------------------------

     CUMULATIVE VOLUMES      L**3       RATES FOR THIS TIME STEP      L**3/T
     ------------------                 ------------------------

           IN:                                      IN:
           ---                                      ---
             STORAGE =      290024.1875               STORAGE =      960924.6250
       CONSTANT HEAD =           0.0000         CONSTANT HEAD =           0.0000
               WELLS =           0.0000                 WELLS =           0.0000
       RIVER LEAKAGE =         162.9865         RIVER LEAKAGE =         918.2451
            RECHARGE =        1096.8652              RECHARGE =        4920.0000

            TOTAL IN =      291284.0625              TOTAL IN =      966762.8750

          OUT:                                     OUT:
          ----                                     ----
             STORAGE =      280980.2500               STORAGE =      921780.6250
       CONSTANT HEAD =           2.9119         CONSTANT HEAD =          21.3229
               WELLS =        7802.9033                 WELLS =       35000.0000
       RIVER LEAKAGE =        2491.5342         RIVER LEAKAGE =        9951.7471
            RECHARGE =           0.0000              RECHARGE =           0.0000

           TOTAL OUT =      291277.5938             TOTAL OUT =      966753.6875

            IN - OUT =           6.4688              IN - OUT =           9.1875

 PERCENT DISCREPANCY =           0.00     PERCENT DISCREPANCY =           0.00






         TIME SUMMARY AT END OF TIME STEP   11 IN STRESS PERIOD    1
                    SECONDS     MINUTES      HOURS       DAYS        YEARS
                    -----------------------------------------------------------
   TIME STEP LENGTH  6495.8      108.26      1.8044     7.51826E-02 2.05839E-04
 STRESS PERIOD TIME  19262.      321.03      5.3506     0.22294     6.10377E-04
         TOTAL TIME  19262.      321.03      5.3506     0.22294     6.10377E-04
1
 
 SOLVING FOR HEAD 

 OUTPUT CONTROL FOR STRESS PERIOD    1   TIME STEP   12
    SAVE HEAD FOR ALL LAYERS
    SAVE DRAWDOWN FOR ALL LAYERS
    SAVE BUDGET
    PRINT HEAD FOR ALL LAYERS
    PRINT BUDGET
 UBDSV1 SAVING "         STORAGE" ON UNIT  53 AT TIME STEP 12, STRESS PERIOD   1
 UBDSV2 SAVING "   CONSTANT HEAD" ON UNIT  53 AT TIME STEP 12, STRESS PERIOD   1
 UBDSV1 SAVING "FLOW RIGHT FACE " ON UNIT  53 AT TIME STEP 12, STRESS PERIOD   1
 UBDSV1 SAVING "FLOW FRONT FACE " ON UNIT  53 AT TIME STEP 12, STRESS PERIOD   1
1
              HEAD IN LAYER   1 AT END OF TIME STEP  12 IN STRESS PERIOD    1
  ---------------------------------------------------------------------------

            1           2           3           4           5           6           7           8           9          10
           11          12          13          14          15          16          17          18          19          20
           21          22          23          24          25          26          27          28          29          30
           31          32          33
 ........................................................................................................................
   1   -99.00      -99.00      -99.00      -99.00      -99.00      -99.00      -99.00      -99.00      -99.00      -99.00    
       -99.00      -99.00       98.61       98.62       98.77       99.21       99.66       99.86       99.92       99.95    
        99.99       100.0       100.0       100.0       100.0       100.0       100.0       100.0       100.0       100.0    
        100.0       100.0      -99.00    
   2   -99.00      -99.00       100.0       100.0       100.0       100.0      100.00       99.95       99.66       98.15    
        93.50       92.09       92.70       93.06       93.88       97.44       99.16       99.78       99.94       99.98    
       100.00       100.0       100.0       100.0       100.0       100.0       100.0       100.0       100.0       100.0    
        100.0       100.0       100.0    
   3   -99.00       100.0       100.0       100.0       100.0       100.0       99.99       99.88       99.07       94.36    
        77.62       72.79       71.71       73.63       80.77       92.64       97.96       99.53       99.90       99.98    
       100.00       100.0       100.0       100.0       100.0       100.0       100.0       100.0       100.0       100.0    
        100.0       100.0       100.0    
   4    100.0       100.0       100.0       100.0       100.0       100.0       99.98       99.85       98.85       93.10    
        72.93       66.52       64.64       67.98       76.14       90.48       97.31       99.37       99.86       99.99    
        100.0       100.0       100.0       100.0       100.0       100.0       100.0       100.0       100.0       100.0    
        100.0       100.0       100.0    
   5    100.0       100.0       100.0       100.0      100.00       100.0       99.98       99.84       98.78       92.80    
        71.90       64.34       60.90       65.89       74.57       89.39       96.95       99.28       99.84       99.99    
        100.0       100.0       100.0       100.0       100.0       100.0       100.0       100.0       100.0       100.0    
        100.0       100.0       100.0    
   6    100.0       100.0       100.0       99.99       99.97       99.99       99.98       99.81       98.66       92.56    
        71.92       65.69       63.79       66.79       74.26       87.28       96.55       99.21       99.83       99.99    
        100.0       100.0       100.0       100.0       100.0       100.0       100.0       100.0       100.0       100.0    
        100.0       100.0       100.0    
   7    100.0       100.0       99.99       99.94       99.74       99.94       99.96       99.74       98.25       91.11    
        73.00       66.97       65.43       67.54       74.78       89.33       96.90       99.27       99.83       99.99    
        100.0       100.0       100.0       100.0       100.0       100.0       100.0       100.0       100.0       100.0    
        100.0      -99.00      -99.00    
   8    100.0       100.0       99.97       99.74       98.15       99.74       99.91       99.49       97.10       90.00    
        74.58       67.46       65.58       67.62       74.94       89.78       97.05       99.29       99.81       99.98    
        100.0       100.0       100.0       100.0       100.0       100.0       100.0       100.0      -99.00      -99.00    
       -99.00      -99.00      -99.00    
   9    100.0       100.0       99.99       99.94       99.74       99.94       99.93       99.44       96.93       89.86    
        74.79       67.04       64.31       67.07       74.86       89.86       97.08       99.26       99.68       99.96    
        100.0       100.0       100.0       100.0       100.0       100.0       100.0      -99.00      -99.00      -99.00    
       -99.00      -99.00      -99.00    
  10    100.0       100.0       100.0       99.99       99.97       99.99       99.93       99.45       96.96       89.97    
        74.95       66.49       62.24       66.49       74.97       90.00       97.13       99.18       99.14       99.89    
       100.00       100.0       100.0       100.0       100.0       100.0       100.0      -99.00      -99.00      -99.00    
       -99.00      -99.00      -99.00    
  11    100.0       100.0       100.0       100.0      100.00      100.00       99.94       99.50       97.22       90.72    
        76.78       69.56       66.97       69.56       76.77       90.74       97.37       99.34       99.70       99.97    
        100.0       100.0       100.0       100.0       100.0       100.0       100.0      -99.00      -99.00      -99.00    
       -99.00      -99.00      -99.00    
  12    100.0       100.0       100.0       100.0       100.0      100.00       99.96       99.62       97.89       92.87    
        82.09       76.86       75.41       76.84       82.08       92.89       98.00       99.53       99.87       99.99    
        100.0       100.0       100.0       100.0       100.0       100.0       100.0      -99.00      -99.00      -99.00    
       -99.00      -99.00      -99.00    
  13    100.0       100.0       100.0       100.0       100.0      100.00       99.96       99.80       99.08       96.99    
        92.90       90.79       90.22       90.77       92.88       96.99       99.09       99.78       99.94      100.00    
        100.0       100.0       100.0       100.0       100.0       100.0       100.0      -99.00      -99.00      -99.00    
       -99.00      -99.00      -99.00    
  14    100.0       100.0       100.0       100.0       100.0       100.0       99.99       99.93       99.70       99.09    
        98.01       97.40       97.22       97.33       97.94       99.08       99.70       99.92       99.98       100.0    
        100.0       100.0       100.0       100.0       100.0       100.0       100.0      -99.00      -99.00      -99.00    
       -99.00      -99.00      -99.00    
  15   -99.00       100.0       100.0       100.0       100.0       100.0      100.00       99.98       99.92       99.77    
        99.54       99.39       99.32       99.31       99.46       99.76       99.92       99.98      100.00       100.0    
        100.0       100.0       100.0       100.0       100.0       100.0       100.0      -99.00      -99.00      -99.00    
       -99.00      -99.00      -99.00    
  16   -99.00       100.0       100.0       100.0       100.0       100.0      100.00       99.99       99.97       99.93    
        99.88       99.84       99.78       99.79       99.88       99.95       99.98      100.00       100.0       100.0    
        100.0       100.0       100.0       100.0       100.0       100.0      -99.00      -99.00      -99.00      -99.00    
       -99.00      -99.00      -99.00    
  17   -99.00       100.0       100.0       100.0       100.0      100.00       99.99       99.97       99.96       99.90    
        99.89       99.88       99.88       99.94       99.97       99.99      100.00       100.0       100.0       100.0    
        100.0       100.0       100.0       100.0       100.0      -99.00      -99.00      -99.00      -99.00      -99.00    
       -99.00      -99.00      -99.00    
  18   -99.00      -99.00       100.0       100.0       99.99       99.98       99.96       99.90       99.90       99.90    
        99.96       99.97       99.97       99.99      100.00      100.00       100.0       100.0       100.0       100.0    
        100.0       100.0       100.0      -99.00      -99.00      -99.00      -99.00      -99.00      -99.00      -99.00    
       -99.00      -99.00      -99.00    
  19   -99.00      -99.00      -99.00      -99.00       99.97       99.90       99.88       99.88       99.95       99.97    
        99.99       99.99      -99.00      -99.00      -99.00      -99.00      -99.00      -99.00      -99.00      -99.00    
       -99.00      -99.00      -99.00      -99.00      -99.00      -99.00      -99.00      -99.00      -99.00      -99.00    
       -99.00      -99.00      -99.00    

 HEAD WILL BE SAVED ON UNIT   51 AT END OF TIME STEP   12, STRESS PERIOD    1

 DRAWDOWN WILL BE SAVED ON UNIT   52 AT END OF TIME STEP   12, STRESS PERIOD    1
1
  VOLUMETRIC BUDGET FOR ENTIRE MODEL AT END OF TIME STEP   12, STRESS PERIOD   1
  ------------------------------------------------------------------------------

     CUMULATIVE VOLUMES      L**3       RATES FOR THIS TIME STEP      L**3/T
     ------------------                 ------------------------

           IN:                                      IN:
           ---                                      ---
             STORAGE =      378225.1250               STORAGE =      782104.5000
       CONSTANT HEAD =           0.0000         CONSTANT HEAD =           0.0000
               WELLS =           0.0000                 WELLS =           0.0000
       RIVER LEAKAGE =         336.7298         RIVER LEAKAGE =        1540.6345
            RECHARGE =        1651.7125              RECHARGE =        4920.0000

            TOTAL IN =      380213.5625              TOTAL IN =      788565.1250

          OUT:                                     OUT:
          ----                                     ----
             STORAGE =      364891.0000               STORAGE =      744062.1875
       CONSTANT HEAD =           6.4024         CONSTANT HEAD =          30.9508
               WELLS =       11749.9873                 WELLS =       35000.0000
       RIVER LEAKAGE =        3559.4590         RIVER LEAKAGE =        9469.6143
            RECHARGE =           0.0000              RECHARGE =           0.0000

           TOTAL OUT =      380206.8750             TOTAL OUT =      788562.7500

            IN - OUT =           6.6875              IN - OUT =           2.3750

 PERCENT DISCREPANCY =           0.00     PERCENT DISCREPANCY =           0.00






         TIME SUMMARY AT END OF TIME STEP   12 IN STRESS PERIOD    1
                    SECONDS     MINUTES      HOURS       DAYS        YEARS
                    -----------------------------------------------------------
   TIME STEP LENGTH  9743.7      162.39      2.7066     0.11277     3.08758E-04
 STRESS PERIOD TIME  29006.      483.43      8.0571     0.33571     9.19135E-04
         TOTAL TIME  29006.      483.43      8.0571     0.33571     9.19135E-04
1
 
 SOLVING FOR HEAD 

 OUTPUT CONTROL FOR STRESS PERIOD    1   TIME STEP   13
    SAVE HEAD FOR ALL LAYERS
    SAVE DRAWDOWN FOR ALL LAYERS
    SAVE BUDGET
    PRINT HEAD FOR ALL LAYERS
    PRINT BUDGET
 UBDSV1 SAVING "         STORAGE" ON UNIT  53 AT TIME STEP 13, STRESS PERIOD   1
 UBDSV2 SAVING "   CONSTANT HEAD" ON UNIT  53 AT TIME STEP 13, STRESS PERIOD   1
 UBDSV1 SAVING "FLOW RIGHT FACE " ON UNIT  53 AT TIME STEP 13, STRESS PERIOD   1
 UBDSV1 SAVING "FLOW FRONT FACE " ON UNIT  53 AT TIME STEP 13, STRESS PERIOD   1
1
              HEAD IN LAYER   1 AT END OF TIME STEP  13 IN STRESS PERIOD    1
  ---------------------------------------------------------------------------

            1           2           3           4           5           6           7           8           9          10
           11          12          13          14          15          16          17          18          19          20
           21          22          23          24          25          26          27          28          29          30
           31          32          33
 ........................................................................................................................
   1   -99.00      -99.00      -99.00      -99.00      -99.00      -99.00      -99.00      -99.00      -99.00      -99.00    
       -99.00      -99.00       97.51       97.62       97.98       98.58       99.28       99.68       99.85       99.92    
        99.98      100.00       100.0       100.0       100.0       100.0       100.0       100.0       100.0       100.0    
        100.0       100.0      -99.00    
   2   -99.00      -99.00       100.0       100.0       100.0       100.0       99.98       99.85       99.26       97.05    
        92.01       90.03       90.89       91.59       93.01       96.51       98.54       99.50       99.84       99.95    
        99.99      100.00       100.0       100.0       100.0       100.0       100.0       100.0       100.0       100.0    
        100.0       100.0       100.0    
   3   -99.00       100.0       100.0       100.0       100.0      100.00       99.96       99.72       98.48       93.34    
        80.15       74.90       73.67       76.07       82.93       91.97       97.07       99.10       99.74       99.94    
        99.99       100.0       100.0       100.0       100.0       100.0       100.0       100.0       100.0       100.0    
        100.0       100.0       100.0    
   4    100.0       100.0       100.0       100.0       100.0      100.00       99.94       99.64       98.07       91.62    
        75.15       68.15       66.75       70.16       78.16       89.34       96.07       98.78       99.63       99.95    
       100.00       100.0       100.0       100.0       100.0       100.0       100.0       100.0       100.0       100.0    
        100.0       100.0       100.0    
   5    100.0       100.0       100.0       100.0       99.99       99.99       99.94       99.60       97.90       91.07    
        73.72       65.87       64.04       68.07       76.19       87.78       95.44       98.58       99.57       99.94    
       100.00       100.0       100.0       100.0       100.0       100.0       100.0       100.0       100.0       100.0    
        100.0       100.0       100.0    
   6    100.0       100.0      100.00       99.98       99.94       99.97       99.92       99.55       97.69       90.68    
        73.56       66.89       65.32       68.34       75.55       85.36       94.87       98.44       99.53       99.94    
       100.00       100.0       100.0       100.0       100.0       100.0       100.0       100.0       100.0       100.0    
        100.0       100.0       100.0    
   7    100.0       100.0       99.98       99.88       99.59       99.86       99.87       99.38       97.07       89.20    
        74.50       68.26       66.53       68.98       76.12       87.55       95.30       98.52       99.53       99.94    
       100.00       100.0       100.0       100.0       100.0       100.0       100.0       100.0       100.0       100.0    
        100.0      -99.00      -99.00    
   8    100.0      100.00       99.94       99.59       97.72       99.56       99.76       98.94       95.64       88.40    
        75.99       68.90       66.80       69.14       76.40       88.16       95.53       98.56       99.51       99.93    
       100.00       100.0       100.0       100.0       100.0       100.0       100.0       100.0      -99.00      -99.00    
       -99.00      -99.00      -99.00    
   9    100.0       100.0       99.98       99.88       99.58       99.85       99.78       98.85       95.41       88.33    
        76.35       68.82       66.20       68.88       76.46       88.35       95.62       98.54       99.34       99.89    
        99.99       100.0       100.0       100.0       100.0       100.0       100.0      -99.00      -99.00      -99.00    
       -99.00      -99.00      -99.00    
  10    100.0       100.0      100.00       99.98       99.93       99.95       99.80       98.87       95.50       88.62    
        76.87       69.06       65.87       69.08       76.90       88.67       95.76       98.47       98.76       99.79    
        99.98       100.0       100.0       100.0       100.0       100.0       100.0      -99.00      -99.00      -99.00    
       -99.00      -99.00      -99.00    
  11    100.0       100.0       100.0       100.0       99.99       99.97       99.83       98.99       95.97       89.72    
        79.08       72.30       69.89       72.30       79.08       89.77       96.21       98.74       99.41       99.90    
        99.99       100.0       100.0       100.0       100.0       100.0       100.0      -99.00      -99.00      -99.00    
       -99.00      -99.00      -99.00    
  12    100.0       100.0       100.0       100.0       100.0       99.98       99.87       99.24       96.97       92.21    
        84.18       79.26       77.71       79.24       84.17       92.25       97.14       99.09       99.67       99.95    
        100.0       100.0       100.0       100.0       100.0       100.0       100.0      -99.00      -99.00      -99.00    
       -99.00      -99.00      -99.00    
  13    100.0       100.0       100.0       100.0       100.0       99.98       99.89       99.55       98.45       96.05    
        92.28       89.90       89.17       89.89       92.26       96.05       98.47       99.50       99.83       99.98    
        100.0       100.0       100.0       100.0       100.0       100.0       100.0      -99.00      -99.00      -99.00    
       -99.00      -99.00      -99.00    
  14    100.0       100.0       100.0       100.0       100.0       99.99       99.94       99.80       99.37       98.48    
        97.17       96.30       96.00       96.23       97.09       98.46       99.37       99.78       99.93       99.99    
        100.0       100.0       100.0       100.0       100.0       100.0       100.0      -99.00      -99.00      -99.00    
       -99.00      -99.00      -99.00    
  15   -99.00       100.0       100.0       100.0       100.0      100.00       99.98       99.92       99.78       99.50    
        99.12       98.85       98.73       98.76       99.03       99.48       99.78       99.92       99.97       100.0    
        100.0       100.0       100.0       100.0       100.0       100.0       100.0      -99.00      -99.00      -99.00    
       -99.00      -99.00      -99.00    
  16   -99.00       100.0       100.0       100.0       100.0      100.00       99.99       99.96       99.92       99.82    
        99.72       99.63       99.55       99.58       99.71       99.85       99.93       99.98       99.99       100.0    
        100.0       100.0       100.0       100.0       100.0       100.0      -99.00      -99.00      -99.00      -99.00    
       -99.00      -99.00      -99.00    
  17   -99.00       100.0       100.0       100.0      100.00       99.99       99.98       99.95       99.92       99.84    
        99.82       99.80       99.80       99.87       99.92       99.96       99.98      100.00       100.0       100.0    
        100.0       100.0       100.0       100.0       100.0      -99.00      -99.00      -99.00      -99.00      -99.00    
       -99.00      -99.00      -99.00    
  18   -99.00      -99.00       100.0       100.0       99.98       99.96       99.93       99.86       99.86       99.86    
        99.92       99.94       99.93       99.96       99.98       99.99      100.00       100.0       100.0       100.0    
        100.0       100.0       100.0      -99.00      -99.00      -99.00      -99.00      -99.00      -99.00      -99.00    
       -99.00      -99.00      -99.00    
  19   -99.00      -99.00      -99.00      -99.00       99.96       99.87       99.84       99.83       99.91       99.94    
        99.97       99.98      -99.00      -99.00      -99.00      -99.00      -99.00      -99.00      -99.00      -99.00    
       -99.00      -99.00      -99.00      -99.00      -99.00      -99.00      -99.00      -99.00      -99.00      -99.00    
       -99.00      -99.00      -99.00    

 HEAD WILL BE SAVED ON UNIT   51 AT END OF TIME STEP   13, STRESS PERIOD    1

 DRAWDOWN WILL BE SAVED ON UNIT   52 AT END OF TIME STEP   13, STRESS PERIOD    1
1
  VOLUMETRIC BUDGET FOR ENTIRE MODEL AT END OF TIME STEP   13, STRESS PERIOD   1
  ------------------------------------------------------------------------------

     CUMULATIVE VOLUMES      L**3       RATES FOR THIS TIME STEP      L**3/T
     ------------------                 ------------------------

           IN:                                      IN:
           ---                                      ---
             STORAGE =      482911.9375               STORAGE =      618860.0000
       CONSTANT HEAD =           0.0000         CONSTANT HEAD =           0.0000
               WELLS =           0.0000                 WELLS =           0.0000
       RIVER LEAKAGE =         613.3076         RIVER LEAKAGE =        1635.0002
            RECHARGE =        2483.9834              RECHARGE =        4920.0000

            TOTAL IN =      486009.2188              TOTAL IN =      625415.0000

          OUT:                                     OUT:
          ----                                     ----
             STORAGE =      463271.5000               STORAGE =      581579.8750
       CONSTANT HEAD =          13.8828         CONSTANT HEAD =          44.2210
               WELLS =       17670.6133                 WELLS =       35000.0000
       RIVER LEAKAGE =        5046.4380         RIVER LEAKAGE =        8790.3311
            RECHARGE =           0.0000              RECHARGE =           0.0000

           TOTAL OUT =      486002.4375             TOTAL OUT =      625414.4375

            IN - OUT =           6.7812              IN - OUT =           0.5625

 PERCENT DISCREPANCY =           0.00     PERCENT DISCREPANCY =           0.00






         TIME SUMMARY AT END OF TIME STEP   13 IN STRESS PERIOD    1
                    SECONDS     MINUTES      HOURS       DAYS        YEARS
                    -----------------------------------------------------------
   TIME STEP LENGTH  14615.      243.59      4.0599     0.16916     4.63137E-04
 STRESS PERIOD TIME  43621.      727.02      12.117     0.50487     1.38227E-03
         TOTAL TIME  43621.      727.02      12.117     0.50487     1.38227E-03
1
 
 SOLVING FOR HEAD 

 OUTPUT CONTROL FOR STRESS PERIOD    1   TIME STEP   14
    SAVE HEAD FOR ALL LAYERS
    SAVE DRAWDOWN FOR ALL LAYERS
    SAVE BUDGET
    PRINT HEAD FOR ALL LAYERS
    PRINT BUDGET
 UBDSV1 SAVING "         STORAGE" ON UNIT  53 AT TIME STEP 14, STRESS PERIOD   1
 UBDSV2 SAVING "   CONSTANT HEAD" ON UNIT  53 AT TIME STEP 14, STRESS PERIOD   1
 UBDSV1 SAVING "FLOW RIGHT FACE " ON UNIT  53 AT TIME STEP 14, STRESS PERIOD   1
 UBDSV1 SAVING "FLOW FRONT FACE " ON UNIT  53 AT TIME STEP 14, STRESS PERIOD   1
1
              HEAD IN LAYER   1 AT END OF TIME STEP  14 IN STRESS PERIOD    1
  ---------------------------------------------------------------------------

            1           2           3           4           5           6           7           8           9          10
           11          12          13          14          15          16          17          18          19          20
           21          22          23          24          25          26          27          28          29          30
           31          32          33
 ........................................................................................................................
   1   -99.00      -99.00      -99.00      -99.00      -99.00      -99.00      -99.00      -99.00      -99.00      -99.00    
       -99.00      -99.00       95.90       96.21       96.88       97.67       98.63       99.31       99.66       99.84    
        99.95       99.99       100.0       100.0       100.0       100.0       100.0       100.0       100.0       100.0    
        100.0       100.0      -99.00    
   2   -99.00      -99.00       100.0       100.0       100.0       99.99       99.91       99.61       98.56       95.67    
        90.58       88.15       89.23       90.33       92.24       95.53       97.72       99.01       99.60       99.85    
        99.95       99.99       100.0       100.0       100.0       100.0       100.0       100.0       100.0       100.0    
        100.0       100.0       100.0    
   3   -99.00       100.0       100.0       100.0       100.0       99.98       99.87       99.41       97.66       92.41    
        82.30       77.10       75.91       78.55       84.62       91.45       96.08       98.43       99.42       99.82    
        99.95      100.00       100.0       100.0       100.0       100.0       100.0       100.0       100.0       100.0    
        100.0       100.0       100.0    
   4    100.0       100.0       100.0       100.0      100.00       99.97       99.83       99.25       97.02       90.37    
        77.48       70.62       69.67       72.93       80.05       88.58       94.74       97.90       99.17       99.83    
        99.98       100.0       100.0       100.0       100.0       100.0       100.0       100.0       100.0       100.0    
        100.0       100.0       100.0    
   5    100.0       100.0       100.0       99.99       99.97       99.95       99.80       99.14       96.69       89.49    
        75.68       68.26       67.38       70.80       77.77       86.58       93.78       97.52       99.01       99.81    
        99.98       100.0       100.0       100.0       100.0       100.0       100.0       100.0       100.0       100.0    
        100.0       100.0       100.0    
   6    100.0       100.0       99.99       99.94       99.87       99.89       99.75       99.01       96.34       88.92    
        75.23       68.86       67.64       70.47       76.75       83.85       93.01       97.28       98.92       99.79    
        99.98       100.0       100.0       100.0       100.0       100.0       100.0       100.0       100.0       100.0    
        100.0       100.0       100.0    
   7    100.0       99.99       99.94       99.77       99.37       99.71       99.64       98.71       95.52       87.52    
        75.93       70.12       68.44       70.90       77.29       86.09       93.46       97.35       98.91       99.79    
        99.98       100.0       100.0       100.0       100.0       100.0       100.0       100.0       100.0       100.0    
        100.0      -99.00      -99.00    
   8    100.0       99.98       99.88       99.38       97.28       99.29       99.43       98.05       93.96       87.10    
        77.31       70.91       68.87       71.20       77.70       86.85       93.79       97.42       98.88       99.77    
        99.98       100.0       100.0       100.0       100.0       100.0       100.0       100.0      -99.00      -99.00    
       -99.00      -99.00      -99.00    
   9    100.0       99.99       99.94       99.77       99.36       99.67       99.45       97.89       93.73       87.18    
        77.90       71.30       68.98       71.40       78.03       87.23       93.99       97.43       98.70       99.71    
        99.97       100.0       100.0       100.0       100.0       100.0       100.0      -99.00      -99.00      -99.00    
       -99.00      -99.00      -99.00    
  10    100.0       100.0       99.99       99.94       99.86       99.84       99.50       97.95       93.95       87.73    
        78.83       72.29       69.83       72.32       78.89       87.83       94.29       97.44       98.12       99.58    
        99.95       100.0       100.0       100.0       100.0       100.0       100.0      -99.00      -99.00      -99.00    
       -99.00      -99.00      -99.00    
  11    100.0       100.0       100.0       99.99       99.96       99.90       99.57       98.20       94.66       89.15    
        81.28       75.57       73.50       75.57       81.30       89.25       95.00       97.87       98.89       99.75    
        99.97       100.0       100.0       100.0       100.0       100.0       100.0      -99.00      -99.00      -99.00    
       -99.00      -99.00      -99.00    
  12    100.0       100.0       100.0       100.0       99.99       99.93       99.67       98.65       95.96       91.76    
        85.83       81.62       80.17       81.61       85.83       91.83       96.20       98.43       99.29       99.85    
        99.99       100.0       100.0       100.0       100.0       100.0       100.0      -99.00      -99.00      -99.00    
       -99.00      -99.00      -99.00    
  13    100.0       100.0       100.0       100.0       99.99       99.93       99.71       99.14       97.67       95.19    
        91.90       89.55       88.74       89.54       91.88       95.20       97.70       99.03       99.58       99.92    
       100.00       100.0       100.0       100.0       100.0       100.0       100.0      -99.00      -99.00      -99.00    
       -99.00      -99.00      -99.00    
  14    100.0       100.0       100.0       100.0      100.00       99.96       99.83       99.53       98.86       97.72    
        96.28       95.22       94.84       95.15       96.20       97.70       98.86       99.50       99.78       99.96    
        100.0       100.0       100.0       100.0       100.0       100.0       100.0      -99.00      -99.00      -99.00    
       -99.00      -99.00      -99.00    
  15   -99.00       100.0       100.0       100.0      100.00       99.98       99.92       99.78       99.51       99.06    
        98.51       98.10       97.92       98.01       98.42       99.04       99.51       99.78       99.90       99.99    
        100.0       100.0       100.0       100.0       100.0       100.0       100.0      -99.00      -99.00      -99.00    
       -99.00      -99.00      -99.00    
  16   -99.00       100.0       100.0       100.0      100.00       99.98       99.95       99.89       99.78       99.60    
        99.41       99.26       99.15       99.20       99.41       99.64       99.81       99.91       99.96      100.00    
        100.0       100.0       100.0       100.0       100.0       100.0      -99.00      -99.00      -99.00      -99.00    
       -99.00      -99.00      -99.00    
  17   -99.00       100.0       100.0       100.0       99.99       99.97       99.94       99.90       99.84       99.73    
        99.67       99.63       99.61       99.70       99.79       99.87       99.93       99.97       99.99       100.0    
        100.0       100.0       100.0       100.0       100.0      -99.00      -99.00      -99.00      -99.00      -99.00    
       -99.00      -99.00      -99.00    
  18   -99.00      -99.00       100.0      100.00       99.97       99.93       99.89       99.81       99.80       99.79    
        99.85       99.85       99.84       99.87       99.91       99.95       99.97       99.99      100.00       100.0    
        100.0       100.0       100.0      -99.00      -99.00      -99.00      -99.00      -99.00      -99.00      -99.00    
       -99.00      -99.00      -99.00    
  19   -99.00      -99.00      -99.00      -99.00       99.93       99.83       99.79       99.78       99.86       99.89    
        99.92       99.93      -99.00      -99.00      -99.00      -99.00      -99.00      -99.00      -99.00      -99.00    
       -99.00      -99.00      -99.00      -99.00      -99.00      -99.00      -99.00      -99.00      -99.00      -99.00    
       -99.00      -99.00      -99.00    

 HEAD WILL BE SAVED ON UNIT   51 AT END OF TIME STEP   14, STRESS PERIOD    1

 DRAWDOWN WILL BE SAVED ON UNIT   52 AT END OF TIME STEP   14, STRESS PERIOD    1
1
  VOLUMETRIC BUDGET FOR ENTIRE MODEL AT END OF TIME STEP   14, STRESS PERIOD   1
  ------------------------------------------------------------------------------

     CUMULATIVE VOLUMES      L**3       RATES FOR THIS TIME STEP      L**3/T
     ------------------                 ------------------------

           IN:                                      IN:
           ---                                      ---
             STORAGE =      604357.7500               STORAGE =      478621.0000
       CONSTANT HEAD =           0.0000         CONSTANT HEAD =           0.0000
               WELLS =           0.0000                 WELLS =           0.0000
       RIVER LEAKAGE =        1036.5365         RIVER LEAKAGE =        1667.9553
            RECHARGE =        3732.3899              RECHARGE =        4920.0000

            TOTAL IN =      609126.6875              TOTAL IN =      485208.9688

          OUT:                                     OUT:
          ----                                     ----
             STORAGE =      575476.1875               STORAGE =      442201.3125
       CONSTANT HEAD =          29.6591         CONSTANT HEAD =          62.1747
               WELLS =       26551.5547                 WELLS =       35000.0000
       RIVER LEAKAGE =        7062.5020         RIVER LEAKAGE =        7945.3579
            RECHARGE =           0.0000              RECHARGE =           0.0000

           TOTAL OUT =      609119.9375             TOTAL OUT =      485208.8438

            IN - OUT =           6.7500              IN - OUT =           0.1250

 PERCENT DISCREPANCY =           0.00     PERCENT DISCREPANCY =           0.00






         TIME SUMMARY AT END OF TIME STEP   14 IN STRESS PERIOD    1
                    SECONDS     MINUTES      HOURS       DAYS        YEARS
                    -----------------------------------------------------------
   TIME STEP LENGTH  21923.      365.39      6.0898     0.25374     6.94705E-04
 STRESS PERIOD TIME  65544.      1092.4      18.207     0.75862     2.07698E-03
         TOTAL TIME  65544.      1092.4      18.207     0.75862     2.07698E-03
1
 
 SOLVING FOR HEAD 

 OUTPUT CONTROL FOR STRESS PERIOD    1   TIME STEP   15
    SAVE HEAD FOR ALL LAYERS
    SAVE DRAWDOWN FOR ALL LAYERS
    SAVE BUDGET
    PRINT HEAD FOR ALL LAYERS
    PRINT BUDGET
 UBDSV1 SAVING "         STORAGE" ON UNIT  53 AT TIME STEP 15, STRESS PERIOD   1
 UBDSV2 SAVING "   CONSTANT HEAD" ON UNIT  53 AT TIME STEP 15, STRESS PERIOD   1
 UBDSV1 SAVING "FLOW RIGHT FACE " ON UNIT  53 AT TIME STEP 15, STRESS PERIOD   1
 UBDSV1 SAVING "FLOW FRONT FACE " ON UNIT  53 AT TIME STEP 15, STRESS PERIOD   1
1
              HEAD IN LAYER   1 AT END OF TIME STEP  15 IN STRESS PERIOD    1
  ---------------------------------------------------------------------------

            1           2           3           4           5           6           7           8           9          10
           11          12          13          14          15          16          17          18          19          20
           21          22          23          24          25          26          27          28          29          30
           31          32          33
 ........................................................................................................................
   1   -99.00      -99.00      -99.00      -99.00      -99.00      -99.00      -99.00      -99.00      -99.00      -99.00    
       -99.00      -99.00       93.87       94.45       95.49       96.51       97.69       98.66       99.28       99.64    
        99.85       99.94       99.99       100.0       100.0       100.0       100.0       100.0       100.0       100.0    
        100.0       100.0      -99.00    
   2   -99.00      -99.00       100.0       100.0       99.99       99.93       99.73       99.13       97.54       94.16    
        89.37       86.78       87.95       89.37       91.54       94.53       96.71       98.26       99.15       99.62    
        99.85       99.94      100.00       100.0       100.0       100.0       100.0       100.0       100.0       100.0    
        100.0       100.0       100.0    
   3   -99.00       100.0       100.0       100.0       99.98       99.91       99.66       98.86       96.63       91.59    
        83.95       79.30       78.32       80.87       85.84       91.03       95.03       97.52       98.84       99.55    
        99.82       99.96       100.0       100.0       100.0       100.0       100.0       100.0       100.0       100.0    
        100.0       100.0       100.0    
   4    100.0       100.0       100.0       99.99       99.97       99.88       99.58       98.59       95.80       89.48    
        79.77       73.79       73.17       76.01       81.78       88.18       93.46       96.76       98.39       99.54    
        99.91       99.99       100.0       100.0       100.0       100.0       100.0       100.0       100.0       100.0    
        100.0       100.0       100.0    
   5    100.0       100.0       99.99       99.96       99.91       99.83       99.49       98.37       95.25       88.31    
        77.77       71.45       71.07       73.89       79.37       85.89       92.20       96.15       98.07       99.47    
        99.91       99.99       100.0       100.0       100.0       100.0       100.0       100.0       100.0       100.0    
        100.0       100.0       100.0    
   6    100.0       99.99       99.95       99.87       99.73       99.71       99.37       98.12       94.73       87.53    
        77.02       71.62       70.75       73.14       78.05       82.88       91.21       95.76       97.88       99.42    
        99.91       99.99       100.0       100.0       100.0       100.0       100.0       100.0       100.0       100.0    
        100.0       100.0       100.0    
   7   100.00       99.97       99.87       99.60       99.08       99.40       99.14       97.66       93.78       86.31    
        77.47       72.64       71.23       73.36       78.49       85.08       91.64       95.80       97.84       99.41    
        99.91       99.99       100.0       100.0       100.0       100.0       100.0       100.0       100.0       100.0    
        100.0      -99.00      -99.00    
   8    99.99       99.95       99.77       99.12       96.83       98.87       98.82       96.80       92.31       86.25    
        78.74       73.53       71.81       73.82       79.06       85.99       92.06       95.92       97.82       99.39    
        99.90       99.99       100.0       100.0       100.0       100.0       100.0       100.0      -99.00      -99.00    
       -99.00      -99.00      -99.00    
   9   100.00       99.97       99.87       99.60       99.06       99.32       98.83       96.61       92.17       86.55    
        79.59       74.38       72.52       74.49       79.73       86.62       92.42       96.01       97.67       99.31    
        99.88       99.99       100.0       100.0       100.0       100.0       100.0      -99.00      -99.00      -99.00    
       -99.00      -99.00      -99.00    
  10    100.0       99.99       99.95       99.86       99.70       99.59       98.94       96.76       92.57       87.38    
        80.88       75.90       74.06       75.95       80.97       87.52       92.94       96.15       97.16       99.17    
        99.86       99.99       100.0       100.0       100.0       100.0       100.0      -99.00      -99.00      -99.00    
       -99.00      -99.00      -99.00    
  11    100.0       100.0       99.99       99.95       99.88       99.71       99.09       97.17       93.51       89.00    
        83.36       79.02       77.42       79.04       83.40       89.14       93.90       96.78       98.07       99.42    
        99.90       99.99       100.0       100.0       100.0       100.0       100.0      -99.00      -99.00      -99.00    
       -99.00      -99.00      -99.00    
  12    100.0       100.0       100.0       99.99       99.94       99.78       99.29       97.85       95.00       91.51    
        87.20       83.92       82.73       83.91       87.22       91.61       95.29       97.56       98.66       99.62    
        99.94      100.00       100.0       100.0       100.0       100.0       100.0      -99.00      -99.00      -99.00    
       -99.00      -99.00      -99.00    
  13    100.0       100.0       100.0       99.99       99.95       99.80       99.39       98.55       96.83       94.49    
        91.76       89.70       88.96       89.70       91.75       94.51       96.86       98.37       99.12       99.76    
        99.97       100.0       100.0       100.0       100.0       100.0       100.0      -99.00      -99.00      -99.00    
       -99.00      -99.00      -99.00    
  14    100.0       100.0       100.0      100.00       99.97       99.86       99.59       99.10       98.20       96.92    
        95.47       94.38       93.96       94.32       95.41       96.90       98.19       99.03       99.48       99.87    
        99.99       100.0       100.0       100.0       100.0       100.0       100.0      -99.00      -99.00      -99.00    
       -99.00      -99.00      -99.00    
  15   -99.00       100.0       100.0       100.0       99.98       99.91       99.76       99.50       99.06       98.44    
        97.77       97.25       97.03       97.16       97.69       98.43       99.06       99.49       99.72       99.93    
       100.00       100.0       100.0       100.0       100.0       100.0       100.0      -99.00      -99.00      -99.00    
       -99.00      -99.00      -99.00    
  16   -99.00       100.0       100.0       100.0       99.98       99.93       99.85       99.72       99.51       99.22    
        98.93       98.70       98.56       98.65       98.94       99.27       99.56       99.75       99.86       99.97    
        100.0       100.0       100.0       100.0       100.0       100.0      -99.00      -99.00      -99.00      -99.00    
       -99.00      -99.00      -99.00    
  17   -99.00       100.0       100.0       99.99       99.96       99.93       99.87       99.78       99.68       99.50    
        99.39       99.31       99.28       99.39       99.53       99.67       99.80       99.89       99.94       99.99    
        100.0       100.0       100.0       100.0       100.0      -99.00      -99.00      -99.00      -99.00      -99.00    
       -99.00      -99.00      -99.00    
  18   -99.00      -99.00       100.0       99.99       99.94       99.88       99.82       99.72       99.68       99.65    
        99.69       99.67       99.64       99.68       99.75       99.83       99.89       99.94       99.97       100.0    
        100.0       100.0       100.0      -99.00      -99.00      -99.00      -99.00      -99.00      -99.00      -99.00    
       -99.00      -99.00      -99.00    
  19   -99.00      -99.00      -99.00      -99.00       99.88       99.77       99.71       99.69       99.76       99.79    
        99.82       99.82      -99.00      -99.00      -99.00      -99.00      -99.00      -99.00      -99.00      -99.00    
       -99.00      -99.00      -99.00      -99.00      -99.00      -99.00      -99.00      -99.00      -99.00      -99.00    
       -99.00      -99.00      -99.00    

 HEAD WILL BE SAVED ON UNIT   51 AT END OF TIME STEP   15, STRESS PERIOD    1

 DRAWDOWN WILL BE SAVED ON UNIT   52 AT END OF TIME STEP   15, STRESS PERIOD    1
1
  VOLUMETRIC BUDGET FOR ENTIRE MODEL AT END OF TIME STEP   15, STRESS PERIOD   1
  ------------------------------------------------------------------------------

     CUMULATIVE VOLUMES      L**3       RATES FOR THIS TIME STEP      L**3/T
     ------------------                 ------------------------

           IN:                                      IN:
           ---                                      ---
             STORAGE =      742706.3125               STORAGE =      363490.0625
       CONSTANT HEAD =           0.0000         CONSTANT HEAD =           0.0000
               WELLS =           0.0000                 WELLS =           0.0000
       RIVER LEAKAGE =        1775.3466         RIVER LEAKAGE =        1941.1122
            RECHARGE =        5604.9995              RECHARGE =        4920.0000

            TOTAL IN =      750086.6875              TOTAL IN =      370351.1875

          OUT:                                     OUT:
          ----                                     ----
             STORAGE =      700343.6875               STORAGE =      328070.5938
       CONSTANT HEAD =          62.3400         CONSTANT HEAD =          85.8642
               WELLS =       39872.9648                 WELLS =       35000.0000
       RIVER LEAKAGE =        9800.8887         RIVER LEAKAGE =        7194.7002
            RECHARGE =           0.0000              RECHARGE =           0.0000

           TOTAL OUT =      750079.8125             TOTAL OUT =      370351.1562

            IN - OUT =           6.8750              IN - OUT =       3.1250E-02

 PERCENT DISCREPANCY =           0.00     PERCENT DISCREPANCY =           0.00






         TIME SUMMARY AT END OF TIME STEP   15 IN STRESS PERIOD    1
                    SECONDS     MINUTES      HOURS       DAYS        YEARS
                    -----------------------------------------------------------
   TIME STEP LENGTH  32885.      548.08      9.1347     0.38061     1.04206E-03
 STRESS PERIOD TIME  98429.      1640.5      27.341      1.1392     3.11904E-03
         TOTAL TIME  98429.      1640.5      27.341      1.1392     3.11904E-03
1
 
 SOLVING FOR HEAD 

 OUTPUT CONTROL FOR STRESS PERIOD    1   TIME STEP   16
    SAVE HEAD FOR ALL LAYERS
    SAVE DRAWDOWN FOR ALL LAYERS
    SAVE BUDGET
    PRINT HEAD FOR ALL LAYERS
    PRINT BUDGET
 UBDSV1 SAVING "         STORAGE" ON UNIT  53 AT TIME STEP 16, STRESS PERIOD   1
 UBDSV2 SAVING "   CONSTANT HEAD" ON UNIT  53 AT TIME STEP 16, STRESS PERIOD   1
 UBDSV1 SAVING "FLOW RIGHT FACE " ON UNIT  53 AT TIME STEP 16, STRESS PERIOD   1
 UBDSV1 SAVING "FLOW FRONT FACE " ON UNIT  53 AT TIME STEP 16, STRESS PERIOD   1
1
              HEAD IN LAYER   1 AT END OF TIME STEP  16 IN STRESS PERIOD    1
  ---------------------------------------------------------------------------

            1           2           3           4           5           6           7           8           9          10
           11          12          13          14          15          16          17          18          19          20
           21          22          23          24          25          26          27          28          29          30
           31          32          33
 ........................................................................................................................
   1   -99.00      -99.00      -99.00      -99.00      -99.00      -99.00      -99.00      -99.00      -99.00      -99.00    
       -99.00      -99.00       91.75       92.59       93.94       95.17       96.48       97.70       98.61       99.22    
        99.61       99.80       99.95       100.0       100.0       100.0       100.0       100.0       100.0       100.0    
        100.0       100.0      -99.00    
   2   -99.00      -99.00       100.0       99.98       99.93       99.76       99.35       98.34       96.26       92.73    
        88.51       86.13       87.19       88.71       90.89       93.51       95.55       97.24       98.41       99.16    
        99.58       99.80       99.95       100.0       100.0       100.0       100.0       100.0       100.0       100.0    
        100.0       100.0       100.0    
   3   -99.00       100.0      100.00       99.97       99.91       99.72       99.24       98.03       95.45       90.90    
        85.18       81.43       80.73       82.92       86.74       90.65       93.97       96.40       97.97       99.03    
        99.54       99.85       99.98       100.0       100.0       100.0       100.0       100.0       100.0       100.0    
        100.0       100.0       100.0    
   4    100.0       100.0       99.99       99.95       99.86       99.65       99.08       97.65       94.53       89.00    
        81.94       77.29       76.87       79.09       83.39       88.04       92.33       95.45       97.28       98.97    
        99.70       99.93      100.00       100.0       100.0       100.0       100.0       100.0       100.0       100.0    
        100.0       100.0       100.0    
   5    100.0       99.99       99.95       99.88       99.76       99.54       98.90       97.29       93.80       87.69    
        80.00       75.18       75.03       77.14       81.08       85.67       90.88       94.63       96.78       98.82    
        99.72       99.95       100.0       100.0       100.0       100.0       100.0       100.0       100.0       100.0    
        100.0       100.0       100.0    
   6    99.99       99.96       99.88       99.72       99.48       99.31       98.66       96.88       93.13       86.78    
        79.08       75.02       74.44       76.20       79.61       82.50       89.72       94.09       96.46       98.71    
        99.70       99.95       100.0       100.0       100.0       100.0       100.0       100.0       100.0       100.0    
        100.0       100.0       100.0    
   7    99.97       99.92       99.75       99.35       98.68       98.87       98.29       96.28       92.18       85.80    
        79.37       75.77       74.72       76.31       80.00       84.67       90.11       94.08       96.37       98.66    
        99.69       99.94       100.0       100.0       100.0       100.0       100.0       100.0       100.0       100.0    
        100.0      -99.00      -99.00    
   8    99.96       99.88       99.62       98.80       96.31       98.23       97.86       95.35       90.98       86.03    
        80.52       76.69       75.42       76.92       80.71       85.71       90.62       94.25       96.36       98.64    
        99.68       99.94       100.0       100.0       100.0       100.0       100.0       100.0      -99.00      -99.00    
       -99.00      -99.00      -99.00    
   9    99.97       99.92       99.74       99.33       98.64       98.72       97.88       95.20       91.00       86.54    
        81.55       77.82       76.50       77.92       81.66       86.57       91.16       94.46       96.28       98.57    
        99.66       99.94      100.00       100.0       100.0       100.0       100.0      -99.00      -99.00      -99.00    
       -99.00      -99.00      -99.00    
  10    99.99       99.96       99.87       99.69       99.41       99.10       98.08       95.48       91.59       87.57    
        83.04       79.57       78.30       79.63       83.13       87.70       91.90       94.76       95.89       98.47    
        99.64       99.93      100.00       100.0       100.0       100.0       100.0      -99.00      -99.00      -99.00    
       -99.00      -99.00      -99.00    
  11    100.0       99.99       99.95       99.86       99.69       99.33       98.37       96.07       92.68       89.23    
        85.34       82.34       81.23       82.36       85.40       89.38       93.03       95.60       96.99       98.83    
        99.72       99.95       100.0       100.0       100.0       100.0       100.0      -99.00      -99.00      -99.00    
       -99.00      -99.00      -99.00    
  12    100.0       100.0       99.98       99.92       99.80       99.47       98.70       96.95       94.24       91.48    
        88.44       86.10       85.24       86.10       88.47       91.60       94.49       96.57       97.77       99.16    
        99.80       99.97       100.0       100.0       100.0       100.0       100.0      -99.00      -99.00      -99.00    
       -99.00      -99.00      -99.00    
  13    100.0       100.0       99.99       99.95       99.84       99.53       98.88       97.83       96.06       94.01    
        91.87       90.26       89.67       90.26       91.87       94.03       96.05       97.54       98.43       99.42    
        99.87       99.98       100.0       100.0       100.0       100.0       100.0      -99.00      -99.00      -99.00    
       -99.00      -99.00      -99.00    
  14    100.0       100.0      100.00       99.97       99.88       99.65       99.18       98.52       97.47       96.18    
        94.87       93.88       93.51       93.84       94.82       96.16       97.43       98.38       98.97       99.63    
        99.92      100.00       100.0       100.0       100.0       100.0       100.0      -99.00      -99.00      -99.00    
       -99.00      -99.00      -99.00    
  15   -99.00       100.0       100.0       99.98       99.90       99.74       99.47       99.06       98.47       97.74    
        97.01       96.46       96.23       96.38       96.94       97.73       98.46       99.02       99.37       99.78    
        99.96       100.0       100.0       100.0       100.0       100.0       100.0      -99.00      -99.00      -99.00    
       -99.00      -99.00      -99.00    
  16   -99.00       100.0       100.0       99.98       99.92       99.80       99.65       99.41       99.08       98.68    
        98.30       98.01       97.86       97.97       98.32       98.74       99.13       99.43       99.63       99.88    
        99.98       100.0       100.0       100.0       100.0       100.0      -99.00      -99.00      -99.00      -99.00    
       -99.00      -99.00      -99.00    
  17   -99.00       100.0      100.00       99.97       99.90       99.83       99.72       99.56       99.38       99.13    
        98.95       98.82       98.76       98.89       99.08       99.30       99.51       99.68       99.79       99.94    
       100.00       100.0       100.0       100.0       100.0      -99.00      -99.00      -99.00      -99.00      -99.00    
       -99.00      -99.00      -99.00    
  18   -99.00      -99.00       99.99       99.96       99.87       99.79       99.69       99.54       99.46       99.39    
        99.38       99.33       99.25       99.29       99.41       99.55       99.68       99.78       99.86       99.96    
        100.0       100.0       100.0      -99.00      -99.00      -99.00      -99.00      -99.00      -99.00      -99.00    
       -99.00      -99.00      -99.00    
  19   -99.00      -99.00      -99.00      -99.00       99.81       99.68       99.59       99.54       99.58       99.58    
        99.58       99.57      -99.00      -99.00      -99.00      -99.00      -99.00      -99.00      -99.00      -99.00    
       -99.00      -99.00      -99.00      -99.00      -99.00      -99.00      -99.00      -99.00      -99.00      -99.00    
       -99.00      -99.00      -99.00    

 HEAD WILL BE SAVED ON UNIT   51 AT END OF TIME STEP   16, STRESS PERIOD    1

 DRAWDOWN WILL BE SAVED ON UNIT   52 AT END OF TIME STEP   16, STRESS PERIOD    1
1
  VOLUMETRIC BUDGET FOR ENTIRE MODEL AT END OF TIME STEP   16, STRESS PERIOD   1
  ------------------------------------------------------------------------------

     CUMULATIVE VOLUMES      L**3       RATES FOR THIS TIME STEP      L**3/T
     ------------------                 ------------------------

           IN:                                      IN:
           ---                                      ---
             STORAGE =      897879.0000               STORAGE =      271795.2500
       CONSTANT HEAD =           0.0000         CONSTANT HEAD =           0.0000
               WELLS =           0.0000                 WELLS =           0.0000
       RIVER LEAKAGE =        3055.0435         RIVER LEAKAGE =        2241.4736
            RECHARGE =        8413.9141              RECHARGE =        4920.0000

            TOTAL IN =      909348.0000              TOTAL IN =      278956.7188

          OUT:                                     OUT:
          ----                                     ----
             STORAGE =      835803.6250               STORAGE =      237267.0156
       CONSTANT HEAD =         128.6434         CONSTANT HEAD =         116.1348
               WELLS =       59855.0820                 WELLS =       35000.0000
       RIVER LEAKAGE =       13553.8457         RIVER LEAKAGE =        6573.5522
            RECHARGE =           0.0000              RECHARGE =           0.0000

           TOTAL OUT =      909341.1875             TOTAL OUT =      278956.7188

            IN - OUT =           6.8125              IN - OUT =           0.0000

 PERCENT DISCREPANCY =           0.00     PERCENT DISCREPANCY =           0.00






         TIME SUMMARY AT END OF TIME STEP   16 IN STRESS PERIOD    1
                    SECONDS     MINUTES      HOURS       DAYS        YEARS
                    -----------------------------------------------------------
   TIME STEP LENGTH  49327.      822.12      13.702     0.57092     1.56309E-03
 STRESS PERIOD TIME 1.47757E+05  2462.6      41.043      1.7101     4.68212E-03
         TOTAL TIME 1.47757E+05  2462.6      41.043      1.7101     4.68212E-03
1
 
 SOLVING FOR HEAD 

 OUTPUT CONTROL FOR STRESS PERIOD    1   TIME STEP   17
    SAVE HEAD FOR ALL LAYERS
    SAVE DRAWDOWN FOR ALL LAYERS
    SAVE BUDGET
    PRINT HEAD FOR ALL LAYERS
    PRINT BUDGET
 UBDSV1 SAVING "         STORAGE" ON UNIT  53 AT TIME STEP 17, STRESS PERIOD   1
 UBDSV2 SAVING "   CONSTANT HEAD" ON UNIT  53 AT TIME STEP 17, STRESS PERIOD   1
 UBDSV1 SAVING "FLOW RIGHT FACE " ON UNIT  53 AT TIME STEP 17, STRESS PERIOD   1
 UBDSV1 SAVING "FLOW FRONT FACE " ON UNIT  53 AT TIME STEP 17, STRESS PERIOD   1
1
              HEAD IN LAYER   1 AT END OF TIME STEP  17 IN STRESS PERIOD    1
  ---------------------------------------------------------------------------

            1           2           3           4           5           6           7           8           9          10
           11          12          13          14          15          16          17          18          19          20
           21          22          23          24          25          26          27          28          29          30
           31          32          33
 ........................................................................................................................
   1   -99.00      -99.00      -99.00      -99.00      -99.00      -99.00      -99.00      -99.00      -99.00      -99.00    
       -99.00      -99.00       89.99       90.94       92.45       93.79       95.13       96.48       97.62       98.49    
        99.10       99.45       99.80       99.96       100.0       100.0       100.0       100.0       100.0       100.0    
        100.0       100.0      -99.00    
   2   -99.00      -99.00       99.95       99.89       99.74       99.39       98.66       97.26       94.90       91.60    
        88.15       86.20       86.98       88.35       90.30       92.51       94.34       96.02       97.37       98.40    
        99.06       99.45       99.81       99.97       100.0       100.0       100.0       100.0       100.0       100.0    
        100.0       100.0       100.0    
   3   -99.00       99.98       99.95       99.87       99.70       99.32       98.52       96.95       94.26       90.40    
        86.22       83.46       83.00       84.67       87.43       90.30       92.96       95.17       96.85       98.21    
        98.98       99.58       99.89       99.99       100.0       100.0       100.0       100.0       100.0       100.0    
        100.0       100.0       100.0    
   4    99.99       99.97       99.92       99.81       99.61       99.18       98.28       96.50       93.40       88.92    
        83.99       80.70       80.39       81.92       84.87       88.11       91.42       94.13       95.96       98.05    
        99.24       99.75       99.94      100.00       100.0       100.0       100.0       100.0       100.0       100.0    
        100.0       100.0       100.0    
   5    99.97       99.93       99.85       99.69       99.42       98.97       97.99       96.02       92.60       87.70    
        82.37       79.04       78.95       80.34       82.88       85.88       89.94       93.19       95.30       97.79    
        99.28       99.79       99.95       100.0       100.0       100.0       100.0       100.0       100.0       100.0    
        100.0       100.0       100.0    
   6    99.94       99.88       99.72       99.44       99.03       98.62       97.62       95.50       91.89       86.82    
        81.50       78.75       78.36       79.46       81.46       82.72       88.73       92.55       94.87       97.60    
        99.24       99.79       99.96       100.0       100.0       100.0       100.0       100.0       100.0       100.0    
        100.0       100.0       100.0    
   7    99.91       99.80       99.53       98.97       98.09       98.03       97.13       94.84       91.06       86.11    
        81.72       79.29       78.57       79.57       81.89       84.91       89.11       92.51       94.74       97.52    
        99.22       99.78       99.96       100.0       100.0       100.0       100.0       100.0       100.0       100.0    
        100.0      -99.00      -99.00    
   8    99.89       99.75       99.37       98.36       95.64       97.31       96.65       94.00       90.24       86.53    
        82.73       80.17       79.31       80.26       82.71       86.05       89.70       92.73       94.76       97.50    
        99.20       99.78       99.96       100.0       100.0       100.0       100.0       100.0      -99.00      -99.00    
       -99.00      -99.00      -99.00    
   9    99.91       99.80       99.52       98.94       98.02       97.86       96.72       93.95       90.43       87.16    
        83.80       81.36       80.49       81.40       83.80       87.06       90.38       93.05       94.76       97.47    
        99.19       99.77       99.95       100.0       100.0       100.0       100.0      -99.00      -99.00      -99.00    
       -99.00      -99.00      -99.00    
  10    99.94       99.87       99.70       99.39       98.91       98.35       97.03       94.37       91.14       88.26    
        85.26       83.04       82.23       83.06       85.29       88.29       91.26       93.51       94.51       97.44    
        99.20       99.78       99.96       100.0       100.0       100.0       100.0      -99.00      -99.00      -99.00    
       -99.00      -99.00      -99.00    
  11    99.97       99.93       99.83       99.64       99.30       98.70       97.46       95.10       92.28       89.81    
        87.25       85.32       84.61       85.33       87.27       89.88       92.46       94.50       95.77       97.95    
        99.34       99.82       99.97       100.0       100.0       100.0       100.0      -99.00      -99.00      -99.00    
       -99.00      -99.00      -99.00    
  12    99.99       99.96       99.90       99.76       99.49       98.96       97.94       96.11       93.76       91.72    
        89.66       88.11       87.54       88.11       89.66       91.77       93.88       95.59       96.74       98.43    
        99.50       99.87       99.98       100.0       100.0       100.0       100.0      -99.00      -99.00      -99.00    
       -99.00      -99.00      -99.00    
  13    100.0       99.98       99.94       99.83       99.59       99.08       98.24       97.10       95.45       93.78    
        92.21       91.06       90.65       91.06       92.19       93.76       95.35       96.66       97.56       98.85    
        99.64       99.91       99.99       100.0       100.0       100.0       100.0      -99.00      -99.00      -99.00    
       -99.00      -99.00      -99.00    
  14    100.0       99.99       99.96       99.87       99.68       99.27       98.62       97.85       96.78       95.62    
        94.54       93.75       93.44       93.70       94.48       95.57       96.68       97.61       98.26       99.20    
        99.76       99.95       100.0       100.0       100.0       100.0       100.0      -99.00      -99.00      -99.00    
       -99.00      -99.00      -99.00    
  15   -99.00       99.99       99.97       99.89       99.72       99.42       99.02       98.49       97.81       97.06    
        96.36       95.85       95.64       95.79       96.29       97.03       97.76       98.37       98.81       99.47    
        99.85       99.97       100.0       100.0       100.0       100.0       100.0      -99.00      -99.00      -99.00    
       -99.00      -99.00      -99.00    
  16   -99.00      100.00       99.97       99.90       99.76       99.54       99.29       98.94       98.51       98.04    
        97.62       97.30       97.14       97.26       97.62       98.08       98.53       98.92       99.21       99.66    
        99.91       99.99       100.0       100.0       100.0       100.0      -99.00      -99.00      -99.00      -99.00    
       -99.00      -99.00      -99.00    
  17   -99.00       99.99       99.96       99.89       99.76       99.62       99.43       99.18       98.91       98.59    
        98.36       98.18       98.10       98.22       98.45       98.73       99.02       99.27       99.46       99.78    
        99.95       100.0       100.0       100.0       100.0      -99.00      -99.00      -99.00      -99.00      -99.00    
       -99.00      -99.00      -99.00    
  18   -99.00      -99.00       99.95       99.88       99.74       99.60       99.45       99.23       99.09       98.95    
        98.88       98.78       98.64       98.69       98.84       99.04       99.25       99.44       99.58       99.83    
        99.97       100.0       100.0      -99.00      -99.00      -99.00      -99.00      -99.00      -99.00      -99.00    
       -99.00      -99.00      -99.00    
  19   -99.00      -99.00      -99.00      -99.00       99.66       99.50       99.37       99.26       99.25       99.19    
        99.15       99.10      -99.00      -99.00      -99.00      -99.00      -99.00      -99.00      -99.00      -99.00    
       -99.00      -99.00      -99.00      -99.00      -99.00      -99.00      -99.00      -99.00      -99.00      -99.00    
       -99.00      -99.00      -99.00    

 HEAD WILL BE SAVED ON UNIT   51 AT END OF TIME STEP   17, STRESS PERIOD    1

 DRAWDOWN WILL BE SAVED ON UNIT   52 AT END OF TIME STEP   17, STRESS PERIOD    1
1
  VOLUMETRIC BUDGET FOR ENTIRE MODEL AT END OF TIME STEP   17, STRESS PERIOD   1
  ------------------------------------------------------------------------------

     CUMULATIVE VOLUMES      L**3       RATES FOR THIS TIME STEP      L**3/T
     ------------------                 ------------------------

           IN:                                      IN:
           ---                                      ---
             STORAGE =     1070023.8750               STORAGE =      201015.3906
       CONSTANT HEAD =           0.0000         CONSTANT HEAD =           0.0000
               WELLS =           0.0000                 WELLS =           0.0000
       RIVER LEAKAGE =        5071.8789         RIVER LEAKAGE =        2355.0803
            RECHARGE =       12627.2861              RECHARGE =        4920.0000

            TOTAL IN =     1087723.0000              TOTAL IN =      208290.4688

          OUT:                                     OUT:
          ----                                     ----
             STORAGE =      978958.2500               STORAGE =      167163.2344
       CONSTANT HEAD =         257.9943         CONSTANT HEAD =         151.0445
               WELLS =       89828.2578                 WELLS =       35000.0000
       RIVER LEAKAGE =       18671.7266         RIVER LEAKAGE =        5976.2036
            RECHARGE =           0.0000              RECHARGE =           0.0000

           TOTAL OUT =     1087716.2500             TOTAL OUT =      208290.4844

            IN - OUT =           6.7500              IN - OUT =      -1.5625E-02

 PERCENT DISCREPANCY =           0.00     PERCENT DISCREPANCY =          -0.00






         TIME SUMMARY AT END OF TIME STEP   17 IN STRESS PERIOD    1
                    SECONDS     MINUTES      HOURS       DAYS        YEARS
                    -----------------------------------------------------------
   TIME STEP LENGTH  73991.      1233.2      20.553     0.85638     2.34463E-03
 STRESS PERIOD TIME 2.21747E+05  3695.8      61.597      2.5665     7.02675E-03
         TOTAL TIME 2.21747E+05  3695.8      61.597      2.5665     7.02675E-03
1
 
 SOLVING FOR HEAD 

 OUTPUT CONTROL FOR STRESS PERIOD    1   TIME STEP   18
    SAVE HEAD FOR ALL LAYERS
    SAVE DRAWDOWN FOR ALL LAYERS
    SAVE BUDGET
    PRINT HEAD FOR ALL LAYERS
    PRINT BUDGET
 UBDSV1 SAVING "         STORAGE" ON UNIT  53 AT TIME STEP 18, STRESS PERIOD   1
 UBDSV2 SAVING "   CONSTANT HEAD" ON UNIT  53 AT TIME STEP 18, STRESS PERIOD   1
 UBDSV1 SAVING "FLOW RIGHT FACE " ON UNIT  53 AT TIME STEP 18, STRESS PERIOD   1
 UBDSV1 SAVING "FLOW FRONT FACE " ON UNIT  53 AT TIME STEP 18, STRESS PERIOD   1
1
              HEAD IN LAYER   1 AT END OF TIME STEP  18 IN STRESS PERIOD    1
  ---------------------------------------------------------------------------

            1           2           3           4           5           6           7           8           9          10
           11          12          13          14          15          16          17          18          19          20
           21          22          23          24          25          26          27          28          29          30
           31          32          33
 ........................................................................................................................
   1   -99.00      -99.00      -99.00      -99.00      -99.00      -99.00      -99.00      -99.00      -99.00      -99.00    
       -99.00      -99.00       88.96       89.84       91.25       92.56       93.81       95.15       96.39       97.44    
        98.25       98.79       99.43       99.82       99.97       100.0       100.0       100.0       100.0       100.0    
        100.0       100.0      -99.00    
   2   -99.00      -99.00       99.77       99.63       99.31       98.71       97.69       96.05       93.72       90.93    
        88.31       86.85       87.27       88.32       89.89       91.65       93.18       94.73       96.13       97.32    
        98.20       98.80       99.46       99.84       99.97       100.0       100.0       100.0       100.0       100.0    
        100.0       100.0       100.0    
   3   -99.00       99.86       99.77       99.59       99.24       98.61       97.52       95.78       93.27       90.21    
        87.28       85.38       85.04       86.16       88.02       90.05       92.07       93.95       95.57       97.10    
        98.09       99.01       99.63       99.89       99.99       100.0       100.0       100.0       100.0       100.0    
        100.0       100.0       100.0    
   4    99.89       99.84       99.72       99.49       99.09       98.42       97.24       95.34       92.59       89.22    
        85.91       83.74       83.47       84.39       86.23       88.34       90.76       92.95       94.61       96.84    
        98.45       99.33       99.75       99.93      100.00       100.0       100.0       100.0       100.0       100.0    
        100.0       100.0       100.0    
   5    99.85       99.78       99.60       99.29       98.82       98.11       96.87       94.83       91.88       88.28    
        84.78       82.63       82.51       83.26       84.67       86.40       89.42       92.02       93.88       96.49    
        98.51       99.41       99.80       99.95       100.0       100.0       100.0       100.0       100.0       100.0    
        100.0       100.0       100.0    
   6    99.80       99.68       99.41       98.95       98.31       97.64       96.40       94.28       91.25       87.59    
        84.15       82.41       82.10       82.60       83.47       83.39       88.27       91.38       93.42       96.24    
        98.46       99.42       99.81       99.96       100.0       100.0       100.0       100.0       100.0       100.0    
        100.0       100.0       100.0    
   7    99.74       99.57       99.16       98.40       97.27       96.96       95.87       93.69       90.65       87.17    
        84.37       82.84       82.33       82.80       84.00       85.68       88.71       91.37       93.28       96.13    
        98.42       99.41       99.81       99.96       100.0       100.0       100.0       100.0       100.0       100.0    
        100.0      -99.00      -99.00    
   8    99.71       99.50       98.97       97.75       94.78       96.21       95.42       93.07       90.22       87.66    
        85.22       83.61       83.04       83.52       84.89       86.89       89.38       91.64       93.34       96.13    
        98.41       99.41       99.81       99.96       100.0       100.0       100.0       100.0      -99.00      -99.00    
       -99.00      -99.00      -99.00    
   9    99.74       99.56       99.14       98.36       97.19       96.80       95.57       93.14       90.52       88.31    
        86.19       84.69       84.13       84.61       85.98       87.95       90.13       92.05       93.43       96.16    
        98.42       99.42       99.81       99.96       100.0       100.0       100.0      -99.00      -99.00      -99.00    
       -99.00      -99.00      -99.00    
  10    99.79       99.67       99.38       98.89       98.19       97.41       96.00       93.65       91.26       89.33    
        87.46       86.11       85.60       86.05       87.33       89.13       91.04       92.59       93.28       96.23    
        98.49       99.45       99.83       99.96       100.0       100.0       100.0      -99.00      -99.00      -99.00    
       -99.00      -99.00      -99.00    
  11    99.85       99.77       99.57       99.23       98.70       97.89       96.55       94.45       92.32       90.65    
        89.05       87.87       87.43       87.83       88.95       90.53       92.20       93.64       94.65       96.87    
        98.72       99.53       99.85       99.97       100.0       100.0       100.0      -99.00      -99.00      -99.00    
       -99.00      -99.00      -99.00    
  12    99.90       99.84       99.70       99.44       98.99       98.26       97.15       95.48       93.63       92.19    
        90.85       89.89       89.52       89.84       90.77       92.09       93.50       94.76       95.72       97.51    
        98.98       99.63       99.89       99.98       100.0       100.0       100.0      -99.00      -99.00      -99.00    
       -99.00      -99.00      -99.00    
  13    99.93       99.89       99.78       99.56       99.17       98.47       97.54       96.47       95.07       93.81    
        92.72       91.95       91.66       91.90       92.63       93.68       94.81       95.83       96.64       98.07    
        99.22       99.72       99.92       99.99       100.0       100.0       100.0      -99.00      -99.00      -99.00    
       -99.00      -99.00      -99.00    
  14    99.95       99.91       99.82       99.64       99.31       98.74       97.98       97.20       96.24       95.28    
        94.45       93.86       93.63       93.79       94.34       95.15       96.01       96.80       97.43       98.56    
        99.43       99.80       99.95       100.0       100.0       100.0       100.0      -99.00      -99.00      -99.00    
       -99.00      -99.00      -99.00    
  15   -99.00       99.92       99.85       99.69       99.38       98.95       98.45       97.85       97.17       96.49    
        95.89       95.46       95.28       95.38       95.78       96.39       97.03       97.61       98.08       98.95    
        99.59       99.87       99.97       100.0       100.0       100.0       100.0      -99.00      -99.00      -99.00    
       -99.00      -99.00      -99.00    
  16   -99.00       99.92       99.86       99.72       99.46       99.12       98.77       98.34       97.86       97.38    
        96.96       96.66       96.50       96.60       96.92       97.35       97.80       98.22       98.57       99.24    
        99.72       99.91       99.99       100.0       100.0       100.0      -99.00      -99.00      -99.00      -99.00    
       -99.00      -99.00      -99.00    
  17   -99.00       99.92       99.85       99.70       99.48       99.24       98.97       98.64       98.30       97.94    
        97.66       97.46       97.36       97.46       97.68       97.99       98.32       98.63       98.90       99.43    
        99.79       99.94      100.00       100.0       100.0      -99.00      -99.00      -99.00      -99.00      -99.00    
       -99.00      -99.00      -99.00    
  18   -99.00      -99.00       99.82       99.69       99.46       99.26       99.03       98.74       98.52       98.32    
        98.20       98.06       97.87       97.90       98.07       98.31       98.58       98.84       99.06       99.52    
        99.83       99.96       100.0      -99.00      -99.00      -99.00      -99.00      -99.00      -99.00      -99.00    
       -99.00      -99.00      -99.00    
  19   -99.00      -99.00      -99.00      -99.00       99.38       99.17       98.98       98.80       98.71       98.59    
        98.49       98.41      -99.00      -99.00      -99.00      -99.00      -99.00      -99.00      -99.00      -99.00    
       -99.00      -99.00      -99.00      -99.00      -99.00      -99.00      -99.00      -99.00      -99.00      -99.00    
       -99.00      -99.00      -99.00    

 HEAD WILL BE SAVED ON UNIT   51 AT END OF TIME STEP   18, STRESS PERIOD    1

 DRAWDOWN WILL BE SAVED ON UNIT   52 AT END OF TIME STEP   18, STRESS PERIOD    1
1
  VOLUMETRIC BUDGET FOR ENTIRE MODEL AT END OF TIME STEP   18, STRESS PERIOD   1
  ------------------------------------------------------------------------------

     CUMULATIVE VOLUMES      L**3       RATES FOR THIS TIME STEP      L**3/T
     ------------------                 ------------------------

           IN:                                      IN:
           ---                                      ---
             STORAGE =     1258218.0000               STORAGE =      146504.2500
       CONSTANT HEAD =           0.0000         CONSTANT HEAD =           0.0000
               WELLS =           0.0000                 WELLS =           0.0000
       RIVER LEAKAGE =        8104.9053         RIVER LEAKAGE =        2361.1321
            RECHARGE =       18947.3438              RECHARGE =        4920.0000

            TOTAL IN =     1285270.2500              TOTAL IN =      153785.3750

          OUT:                                     OUT:
          ----                                     ----
             STORAGE =     1124404.0000               STORAGE =      113225.7109
       CONSTANT HEAD =         480.2897         CONSTANT HEAD =         173.0512
               WELLS =      134788.0156                 WELLS =       35000.0000
       RIVER LEAKAGE =       25590.9609         RIVER LEAKAGE =        5386.4438
            RECHARGE =           0.0000              RECHARGE =           0.0000

           TOTAL OUT =     1285263.2500             TOTAL OUT =      153785.2031

            IN - OUT =           7.0000              IN - OUT =           0.1719

 PERCENT DISCREPANCY =           0.00     PERCENT DISCREPANCY =           0.00






         TIME SUMMARY AT END OF TIME STEP   18 IN STRESS PERIOD    1
                    SECONDS     MINUTES      HOURS       DAYS        YEARS
                    -----------------------------------------------------------
   TIME STEP LENGTH 1.10986E+05  1849.8      30.830      1.2846     3.51695E-03
 STRESS PERIOD TIME 3.32734E+05  5545.6      92.426      3.8511     1.05437E-02
         TOTAL TIME 3.32734E+05  5545.6      92.426      3.8511     1.05437E-02
1
 
 SOLVING FOR HEAD 

 OUTPUT CONTROL FOR STRESS PERIOD    1   TIME STEP   19
    SAVE HEAD FOR ALL LAYERS
    SAVE DRAWDOWN FOR ALL LAYERS
    SAVE BUDGET
    PRINT HEAD FOR ALL LAYERS
    PRINT BUDGET
 UBDSV1 SAVING "         STORAGE" ON UNIT  53 AT TIME STEP 19, STRESS PERIOD   1
 UBDSV2 SAVING "   CONSTANT HEAD" ON UNIT  53 AT TIME STEP 19, STRESS PERIOD   1
 UBDSV1 SAVING "FLOW RIGHT FACE " ON UNIT  53 AT TIME STEP 19, STRESS PERIOD   1
 UBDSV1 SAVING "FLOW FRONT FACE " ON UNIT  53 AT TIME STEP 19, STRESS PERIOD   1
1
              HEAD IN LAYER   1 AT END OF TIME STEP  19 IN STRESS PERIOD    1
  ---------------------------------------------------------------------------

            1           2           3           4           5           6           7           8           9          10
           11          12          13          14          15          16          17          18          19          20
           21          22          23          24          25          26          27          28          29          30
           31          32          33
 ........................................................................................................................
   1   -99.00      -99.00      -99.00      -99.00      -99.00      -99.00      -99.00      -99.00      -99.00      -99.00    
       -99.00      -99.00       88.76       89.43       90.56       91.66       92.72       93.91       95.10       96.19    
        97.11       97.79       98.75       99.49       99.82       99.96       100.0       100.0       100.1       100.1    
        100.1       100.1      -99.00    
   2   -99.00      -99.00       99.33       99.07       98.57       97.76       96.57       94.94       92.93       90.78    
        88.92       87.88       87.97       88.64       89.75       91.05       92.25       93.56       94.85       96.07    
        97.06       97.81       98.82       99.53       99.84       99.97       100.0       100.0       100.1       100.1    
        100.1       100.1       100.1    
   3   -99.00       99.51       99.34       99.02       98.48       97.65       96.42       94.73       92.65       90.40    
        88.42       87.16       86.85       87.48       88.62       89.95       91.42       92.91       94.34       95.85    
        96.93       98.12       99.11       99.63       99.87       99.98       100.0       100.0       100.1       100.1    
        100.1       100.1       100.1    
   4    99.60       99.49       99.27       98.88       98.29       97.41       96.14       94.38       92.19       89.83    
        87.69       86.29       86.01       86.45       87.44       88.70       90.38       92.05       93.43       95.52    
        97.35       98.58       99.32       99.72       99.91       99.99       100.0       100.0       100.0       100.0    
        100.0       100.0       100.0    
   5    99.54       99.40       99.11       98.63       97.95       97.05       95.75       93.95       91.69       89.26    
        87.05       85.69       85.47       85.73       86.31       87.10       89.26       91.24       92.75       95.15    
        97.44       98.73       99.42       99.77       99.93       100.0       100.0       100.0       100.0       100.0    
        100.0       100.0       100.0    
   6    99.46       99.27       98.86       98.21       97.36       96.53       95.29       93.50       91.27       88.85    
        86.73       85.63       85.30       85.34       85.38       84.31       88.27       90.70       92.33       94.89    
        97.39       98.76       99.46       99.79       99.94       100.0       100.0       100.0       100.0       100.0    
        100.0       100.0       100.0    
   7    99.37       99.12       98.56       97.60       96.27       95.82       94.79       93.06       90.93       88.69    
        86.98       86.01       85.59       85.65       86.05       86.72       88.82       90.75       92.25       94.80    
        97.36       98.77       99.47       99.80       99.94       100.0       100.0       100.0       100.0       100.0    
        100.0      -99.00      -99.00    
   8    99.33       99.04       98.36       96.93       93.77       95.09       94.44       92.68       90.78       89.16    
        87.66       86.67       86.24       86.36       86.96       87.99       89.54       91.08       92.36       94.83    
        97.37       98.78       99.48       99.80       99.94      100.00       100.0       100.0      -99.00      -99.00    
       -99.00      -99.00      -99.00    
   9    99.37       99.12       98.55       97.58       96.23       95.75       94.68       92.87       91.13       89.74    
        88.46       87.55       87.16       87.32       87.97       89.02       90.30       91.52       92.50       94.92    
        97.43       98.81       99.49       99.81       99.95      100.00       100.0      -99.00      -99.00      -99.00    
       -99.00      -99.00      -99.00    
  10    99.46       99.27       98.85       98.18       97.31       96.45       95.20       93.41       91.80       90.59    
        89.46       88.66       88.31       88.48       89.12       90.07       91.16       92.08       92.39       95.07    
        97.56       98.88       99.53       99.83       99.95      100.00       100.0      -99.00      -99.00      -99.00    
       -99.00      -99.00      -99.00    
  11    99.56       99.42       99.11       98.61       97.92       97.04       95.81       94.17       92.70       91.64    
        90.66       89.95       89.65       89.81       90.39       91.24       92.21       93.10       93.80       95.81    
        97.88       99.02       99.59       99.85       99.96      100.00       100.0      -99.00      -99.00      -99.00    
       -99.00      -99.00      -99.00    
  12    99.65       99.54       99.30       98.90       98.31       97.50       96.46       95.11       93.77       92.81    
        91.97       91.36       91.11       91.24       91.73       92.48       93.34       94.16       94.89       96.54    
        98.25       99.19       99.66       99.88       99.97       100.0       100.0      -99.00      -99.00      -99.00    
       -99.00      -99.00      -99.00    
  13    99.72       99.63       99.43       99.10       98.57       97.79       96.90       96.00       94.92       94.02    
        93.28       92.77       92.55       92.66       93.08       93.71       94.44       95.16       95.81       97.20    
        98.59       99.36       99.74       99.91       99.99       100.0       100.0      -99.00      -99.00      -99.00    
       -99.00      -99.00      -99.00    
  14    99.76       99.68       99.52       99.23       98.77       98.10       97.34       96.64       95.85       95.12    
        94.51       94.09       93.90       93.97       94.31       94.85       95.46       96.06       96.61       97.77    
        98.90       99.50       99.80       99.94      100.00       100.0       100.0      -99.00      -99.00      -99.00    
       -99.00      -99.00      -99.00    
  15   -99.00       99.69       99.56       99.31       98.87       98.35       97.81       97.23       96.62       96.04    
        95.56       95.22       95.06       95.10       95.38       95.83       96.33       96.82       97.27       98.24    
        99.14       99.62       99.86       99.96       100.0       100.0       100.0      -99.00      -99.00      -99.00    
       -99.00      -99.00      -99.00    
  16   -99.00       99.70       99.58       99.35       98.97       98.54       98.13       97.68       97.21       96.76    
        96.38       96.11       95.96       96.01       96.27       96.62       97.01       97.41       97.78       98.60    
        99.33       99.71       99.89       99.97       100.0       100.0      -99.00      -99.00      -99.00      -99.00    
       -99.00      -99.00      -99.00    
  17   -99.00       99.70       99.57       99.33       99.00       98.69       98.35       97.97       97.60       97.22    
        96.95       96.74       96.62       96.69       96.88       97.16       97.48       97.82       98.13       98.84    
        99.46       99.77       99.92       99.98       100.0      -99.00      -99.00      -99.00      -99.00      -99.00    
       -99.00      -99.00      -99.00    
  18   -99.00      -99.00       99.52       99.31       98.98       98.72       98.42       98.08       97.81       97.57    
        97.41       97.24       97.05       97.06       97.20       97.44       97.72       98.02       98.31       98.96    
        99.52       99.80       99.91      -99.00      -99.00      -99.00      -99.00      -99.00      -99.00      -99.00    
       -99.00      -99.00      -99.00    
  19   -99.00      -99.00      -99.00      -99.00       98.87       98.63       98.38       98.14       97.98       97.81    
        97.67       97.57      -99.00      -99.00      -99.00      -99.00      -99.00      -99.00      -99.00      -99.00    
       -99.00      -99.00      -99.00      -99.00      -99.00      -99.00      -99.00      -99.00      -99.00      -99.00    
       -99.00      -99.00      -99.00    

 HEAD WILL BE SAVED ON UNIT   51 AT END OF TIME STEP   19, STRESS PERIOD    1

 DRAWDOWN WILL BE SAVED ON UNIT   52 AT END OF TIME STEP   19, STRESS PERIOD    1
1
  VOLUMETRIC BUDGET FOR ENTIRE MODEL AT END OF TIME STEP   19, STRESS PERIOD   1
  ------------------------------------------------------------------------------

     CUMULATIVE VOLUMES      L**3       RATES FOR THIS TIME STEP      L**3/T
     ------------------                 ------------------------

           IN:                                      IN:
           ---                                      ---
             STORAGE =     1459945.5000               STORAGE =      104693.0234
       CONSTANT HEAD =          26.2822         CONSTANT HEAD =          13.6400
               WELLS =           0.0000                 WELLS =           0.0000
       RIVER LEAKAGE =       12650.8457         RIVER LEAKAGE =        2359.2642
            RECHARGE =       28427.4297              RECHARGE =        4920.0000

            TOTAL IN =     1501050.0000              TOTAL IN =      111985.9297

          OUT:                                     OUT:
          ----                                     ----
             STORAGE =     1263176.7500               STORAGE =       72020.6172
       CONSTANT HEAD =         724.6329         CONSTANT HEAD =         126.8098
               WELLS =      202227.6562                 WELLS =       35000.0000
       RIVER LEAKAGE =       34914.0430         RIVER LEAKAGE =        4838.5171
            RECHARGE =           0.0000              RECHARGE =           0.0000

           TOTAL OUT =     1501043.0000             TOTAL OUT =      111985.9453

            IN - OUT =           7.0000              IN - OUT =      -1.5625E-02

 PERCENT DISCREPANCY =           0.00     PERCENT DISCREPANCY =          -0.00






         TIME SUMMARY AT END OF TIME STEP   19 IN STRESS PERIOD    1
                    SECONDS     MINUTES      HOURS       DAYS        YEARS
                    -----------------------------------------------------------
   TIME STEP LENGTH 1.66480E+05  2774.7      46.244      1.9268     5.27542E-03
 STRESS PERIOD TIME 4.99213E+05  8320.2      138.67      5.7779     1.58191E-02
         TOTAL TIME 4.99213E+05  8320.2      138.67      5.7779     1.58191E-02
1
 
 SOLVING FOR HEAD 

 OUTPUT CONTROL FOR STRESS PERIOD    1   TIME STEP   20
    SAVE HEAD FOR ALL LAYERS
    SAVE DRAWDOWN FOR ALL LAYERS
    SAVE BUDGET
    PRINT HEAD FOR ALL LAYERS
    PRINT BUDGET
 UBDSV1 SAVING "         STORAGE" ON UNIT  53 AT TIME STEP 20, STRESS PERIOD   1
 UBDSV2 SAVING "   CONSTANT HEAD" ON UNIT  53 AT TIME STEP 20, STRESS PERIOD   1
 UBDSV1 SAVING "FLOW RIGHT FACE " ON UNIT  53 AT TIME STEP 20, STRESS PERIOD   1
 UBDSV1 SAVING "FLOW FRONT FACE " ON UNIT  53 AT TIME STEP 20, STRESS PERIOD   1
1
              HEAD IN LAYER   1 AT END OF TIME STEP  20 IN STRESS PERIOD    1
  ---------------------------------------------------------------------------

            1           2           3           4           5           6           7           8           9          10
           11          12          13          14          15          16          17          18          19          20
           21          22          23          24          25          26          27          28          29          30
           31          32          33
 ........................................................................................................................
   1   -99.00      -99.00      -99.00      -99.00      -99.00      -99.00      -99.00      -99.00      -99.00      -99.00    
       -99.00      -99.00       89.21       89.64       90.40       91.20       91.99       92.95       93.96       94.96    
        95.86       96.59       97.78       98.89       99.48       99.79       99.94       100.0       100.1       100.1    
        100.1       100.1      -99.00    
   2   -99.00      -99.00       98.50       98.17       97.56       96.69       95.54       94.14       92.60       91.08    
        89.82       89.07       88.93       89.26       89.93       90.80       91.66       92.67       93.75       94.85    
        95.81       96.63       97.89       98.96       99.52       99.81       99.95       100.0       100.1       100.1    
        100.1       100.1       100.1    
   3   -99.00       98.79       98.54       98.12       97.47       96.58       95.42       94.01       92.45       90.91    
        89.62       88.75       88.42       88.66       89.25       90.06       91.06       92.17       93.33       94.65    
        95.68       96.99       98.30       99.12       99.59       99.83       99.96       100.0       100.1       100.1    
        100.1       100.1       100.1    
   4    98.95       98.79       98.47       97.96       97.26       96.35       95.19       93.77       92.20       90.65    
        89.29       88.33       88.00       88.09       88.50       89.15       90.27       91.48       92.56       94.32    
        96.11       97.55       98.60       99.27       99.65       99.86       99.97       100.0       100.0       100.1    
        100.1       100.1       100.1    
   5    98.89       98.69       98.29       97.68       96.91       96.00       94.86       93.48       91.93       90.38    
        89.00       88.09       87.76       87.67       87.68       87.83       89.37       90.84       92.01       94.00    
        96.24       97.77       98.76       99.36       99.70       99.89       99.98       100.0       100.0       100.0    
        100.0       100.0       100.0    
   6    98.78       98.53       98.02       97.24       96.31       95.49       94.47       93.18       91.72       90.22    
        88.92       88.16       87.77       87.48       86.97       85.24       88.55       90.42       91.69       93.80    
        96.24       97.84       98.83       99.41       99.73       99.90       99.98       100.0       100.0       100.0    
        100.0       100.0       100.0    
   7    98.68       98.37       97.70       96.62       95.21       94.82       94.08       92.91       91.59       90.23    
        89.19       88.53       88.11       87.88       87.75       87.77       89.19       90.57       91.68       93.76    
        96.24       97.88       98.87       99.44       99.75       99.91       99.98       100.0       100.0       100.0    
        100.0      -99.00      -99.00    
   8    98.64       98.29       97.50       95.96       92.74       94.15       93.83       92.74       91.62       90.65    
        89.73       89.08       88.69       88.56       88.66       89.06       89.96       90.95       91.84       93.84    
        96.29       97.92       98.91       99.46       99.76       99.91       99.98       100.0      -99.00      -99.00    
       -99.00      -99.00      -99.00    
   9    98.70       98.39       97.73       96.65       95.25       94.87       94.15       92.99       91.96       91.13    
        90.35       89.77       89.44       89.38       89.58       90.02       90.69       91.40       92.00       93.98    
        96.40       97.99       98.95       99.49       99.78       99.92       100.0      -99.00      -99.00      -99.00    
       -99.00      -99.00      -99.00    
  10    98.83       98.58       98.07       97.31       96.40       95.63       94.70       93.51       92.51       91.79    
        91.10       90.59       90.31       90.29       90.51       90.93       91.46       91.91       91.89       94.17    
        96.59       98.12       99.03       99.53       99.80       99.93       100.0      -99.00      -99.00      -99.00    
       -99.00      -99.00      -99.00    
  11    98.99       98.79       98.40       97.81       97.08       96.27       95.31       94.17       93.22       92.56    
        91.96       91.51       91.27       91.27       91.49       91.88       92.37       92.85       93.27       94.93    
        96.98       98.32       99.13       99.58       99.82       99.94       100.0      -99.00      -99.00      -99.00    
       -99.00      -99.00      -99.00    
  12    99.13       98.97       98.66       98.17       97.54       96.78       95.94       94.95       94.03       93.40    
        92.86       92.47       92.26       92.26       92.47       92.84       93.30       93.79       94.29       95.69    
        97.41       98.56       99.26       99.65       99.85       99.95       100.0      -99.00      -99.00      -99.00    
       -99.00      -99.00      -99.00    
  13    99.24       99.11       98.84       98.43       97.85       97.10       96.36       95.67       94.89       94.26    
        93.76       93.41       93.22       93.23       93.42       93.77       94.20       94.67       95.15       96.37    
        97.83       98.80       99.38       99.71       99.88       99.97       100.0      -99.00      -99.00      -99.00    
       -99.00      -99.00      -99.00    
  14    99.30       99.19       98.97       98.60       98.08       97.42       96.75       96.18       95.57       95.03    
        94.59       94.28       94.12       94.11       94.28       94.61       95.01       95.44       95.87       96.95    
        98.20       99.01       99.50       99.77       99.91       99.98       100.0      -99.00      -99.00      -99.00    
       -99.00      -99.00      -99.00    
  15   -99.00       99.21       99.03       98.70       98.20       97.65       97.15       96.64       96.14       95.69    
        95.31       95.04       94.89       94.87       95.04       95.34       95.70       96.08       96.47       97.43    
        98.51       99.19       99.59       99.82       99.93       99.99       100.0      -99.00      -99.00      -99.00    
       -99.00      -99.00      -99.00    
  16   -99.00       99.22       99.06       98.75       98.30       97.83       97.43       97.00       96.58       96.19    
        95.87       95.64       95.49       95.50       95.68       95.94       96.25       96.59       96.94       97.80    
        98.74       99.32       99.66       99.85       99.96       100.0      -99.00      -99.00      -99.00      -99.00    
       -99.00      -99.00      -99.00    
  17   -99.00       99.22       99.04       98.72       98.31       97.96       97.60       97.23       96.87       96.52    
        96.26       96.07       95.95       95.99       96.13       96.35       96.63       96.93       97.25       98.05    
        98.89       99.40       99.70       99.88       100.0      -99.00      -99.00      -99.00      -99.00      -99.00    
       -99.00      -99.00      -99.00    
  18   -99.00      -99.00       98.96       98.69       98.28       97.98       97.66       97.30       97.02       96.77    
        96.61       96.45       96.27       96.26       96.37       96.57       96.82       97.11       97.42       98.18    
        98.97       99.44       99.66      -99.00      -99.00      -99.00      -99.00      -99.00      -99.00      -99.00    
       -99.00      -99.00      -99.00    
  19   -99.00      -99.00      -99.00      -99.00       98.15       97.90       97.62       97.35       97.16       96.96    
        96.81       96.71      -99.00      -99.00      -99.00      -99.00      -99.00      -99.00      -99.00      -99.00    
       -99.00      -99.00      -99.00      -99.00      -99.00      -99.00      -99.00      -99.00      -99.00      -99.00    
       -99.00      -99.00      -99.00    

 HEAD WILL BE SAVED ON UNIT   51 AT END OF TIME STEP   20, STRESS PERIOD    1

 DRAWDOWN WILL BE SAVED ON UNIT   52 AT END OF TIME STEP   20, STRESS PERIOD    1
1
  VOLUMETRIC BUDGET FOR ENTIRE MODEL AT END OF TIME STEP   20, STRESS PERIOD   1
  ------------------------------------------------------------------------------

     CUMULATIVE VOLUMES      L**3       RATES FOR THIS TIME STEP      L**3/T
     ------------------                 ------------------------

           IN:                                      IN:
           ---                                      ---
             STORAGE =     1674480.8750               STORAGE =       74226.7344
       CONSTANT HEAD =         847.2622         CONSTANT HEAD =         284.0495
               WELLS =           0.0000                 WELLS =           0.0000
       RIVER LEAKAGE =       19103.0039         RIVER LEAKAGE =        2232.3718
            RECHARGE =       42647.5625              RECHARGE =        4920.0000

            TOTAL IN =     1737078.7500              TOTAL IN =       81663.1562

          OUT:                                     OUT:
          ----                                     ----
             STORAGE =     1385062.5000               STORAGE =       42171.0547
       CONSTANT HEAD =        1005.6104         CONSTANT HEAD =          97.2149
               WELLS =      303387.1250                 WELLS =       35000.0000
       RIVER LEAKAGE =       47616.4531         RIVER LEAKAGE =        4394.8862
            RECHARGE =           0.0000              RECHARGE =           0.0000

           TOTAL OUT =     1737071.7500             TOTAL OUT =       81663.1484

            IN - OUT =           7.0000              IN - OUT =       7.8125E-03

 PERCENT DISCREPANCY =           0.00     PERCENT DISCREPANCY =           0.00






         TIME SUMMARY AT END OF TIME STEP   20 IN STRESS PERIOD    1
                    SECONDS     MINUTES      HOURS       DAYS        YEARS
                    -----------------------------------------------------------
   TIME STEP LENGTH 2.49719E+05  4162.0      69.366      2.8903     7.91313E-03
 STRESS PERIOD TIME 7.48933E+05  12482.      208.04      8.6682     2.37322E-02
         TOTAL TIME 7.48933E+05  12482.      208.04      8.6682     2.37322E-02
1
 
 SOLVING FOR HEAD 

 OUTPUT CONTROL FOR STRESS PERIOD    1   TIME STEP   21
    SAVE HEAD FOR ALL LAYERS
    SAVE DRAWDOWN FOR ALL LAYERS
    SAVE BUDGET
    PRINT HEAD FOR ALL LAYERS
    PRINT BUDGET
 UBDSV1 SAVING "         STORAGE" ON UNIT  53 AT TIME STEP 21, STRESS PERIOD   1
 UBDSV2 SAVING "   CONSTANT HEAD" ON UNIT  53 AT TIME STEP 21, STRESS PERIOD   1
 UBDSV1 SAVING "FLOW RIGHT FACE " ON UNIT  53 AT TIME STEP 21, STRESS PERIOD   1
 UBDSV1 SAVING "FLOW FRONT FACE " ON UNIT  53 AT TIME STEP 21, STRESS PERIOD   1
1
              HEAD IN LAYER   1 AT END OF TIME STEP  21 IN STRESS PERIOD    1
  ---------------------------------------------------------------------------

            1           2           3           4           5           6           7           8           9          10
           11          12          13          14          15          16          17          18          19          20
           21          22          23          24          25          26          27          28          29          30
           31          32          33
 ........................................................................................................................
   1   -99.00      -99.00      -99.00      -99.00      -99.00      -99.00      -99.00      -99.00      -99.00      -99.00    
       -99.00      -99.00       89.99       90.20       90.62       91.11       91.65       92.35       93.14       93.96    
        94.74       95.43       96.69       98.05       98.91       99.43       99.73       99.91       100.0       100.1    
        100.1       100.1      -99.00    
   2   -99.00      -99.00       97.33       97.00       96.42       95.66       94.73       93.70       92.63       91.62    
        90.78       90.22       89.95       90.02       90.32       90.83       91.40       92.13       92.96       93.86    
        94.70       95.48       96.83       98.15       98.96       99.46       99.75       99.91       100.0       100.1    
        100.1       100.1       100.1    
   3   -99.00       97.67       97.39       96.96       96.34       95.57       94.65       93.62       92.56       91.56    
        90.71       90.08       89.70       89.67       89.88       90.31       90.95       91.74       92.63       93.69    
        94.59       95.84       97.29       98.36       99.06       99.51       99.77       99.92       100.0       100.1    
        100.1       100.1       100.1    
   4    97.87       97.68       97.33       96.81       96.16       95.38       94.48       93.49       92.45       91.48    
        90.59       89.87       89.48       89.33       89.36       89.61       90.34       91.21       92.02       93.40    
        94.97       96.42       97.65       98.55       99.17       99.56       99.80       99.93       100.0       100.0    
        100.1       100.1       100.1    
   5    97.80       97.58       97.15       96.55       95.82       95.07       94.24       93.31       92.34       91.39    
        90.49       89.80       89.37       89.07       88.73       88.47       89.60       90.71       91.60       93.16    
        95.13       96.69       97.86       98.70       99.25       99.61       99.82       99.94       100.0       100.0    
        100.0       100.0       100.0    
   6    97.70       97.43       96.89       96.12       95.25       94.62       93.94       93.14       92.28       91.38    
        90.53       89.93       89.48       88.98       88.14       86.00       88.90       90.40       91.38       93.04    
        95.18       96.81       97.99       98.79       99.32       99.65       99.84       99.95       100.0       100.0    
        100.0       100.0       100.0    
   7    97.61       97.28       96.59       95.51       94.20       94.01       93.64       93.00       92.28       91.46    
        90.79       90.27       89.83       89.41       88.97       88.60       89.62       90.62       91.44       93.07    
        95.24       96.90       98.07       98.86       99.37       99.68       99.87       99.96       100.0       100.0    
        100.0      -99.00      -99.00    
   8    97.59       97.22       96.41       94.89       91.76       93.40       93.48       92.96       92.37       91.80    
        91.21       90.72       90.34       90.05       89.86       89.89       90.39       91.03       91.64       93.20    
        95.34       96.98       98.14       98.92       99.41       99.72       99.91       100.0      -99.00      -99.00    
       -99.00      -99.00      -99.00    
   9    97.68       97.36       96.68       95.61       94.32       94.17       93.83       93.22       92.66       92.17    
        91.68       91.26       90.95       90.75       90.68       90.79       91.09       91.45       91.80       93.35    
        95.49       97.10       98.23       98.98       99.46       99.77       100.0      -99.00      -99.00      -99.00    
       -99.00      -99.00      -99.00    
  10    97.86       97.59       97.07       96.33       95.51       94.95       94.37       93.67       93.10       92.66    
        92.23       91.86       91.60       91.47       91.45       91.57       91.76       91.90       91.65       93.54    
        95.72       97.28       98.35       99.05       99.50       99.79       100.0      -99.00      -99.00      -99.00    
       -99.00      -99.00      -99.00    
  11    98.06       97.85       97.44       96.88       96.22       95.60       94.94       94.22       93.62       93.21    
        92.82       92.50       92.29       92.19       92.21       92.33       92.53       92.74       92.95       94.29    
        96.14       97.53       98.50       99.15       99.55       99.82       100.0      -99.00      -99.00      -99.00    
       -99.00      -99.00      -99.00    
  12    98.25       98.08       97.75       97.28       96.71       96.10       95.49       94.82       94.21       93.80    
        93.43       93.15       92.96       92.89       92.93       93.07       93.29       93.56       93.88       95.02    
        96.60       97.82       98.68       99.25       99.61       99.84       100.0      -99.00      -99.00      -99.00    
       -99.00      -99.00      -99.00    
  13    98.40       98.26       97.98       97.57       97.04       96.42       95.86       95.37       94.82       94.39    
        94.04       93.77       93.60       93.54       93.60       93.77       94.00       94.29       94.63       95.66    
        97.04       98.10       98.85       99.35       99.67       99.87       100.0      -99.00      -99.00      -99.00    
       -99.00      -99.00      -99.00    
  14    98.48       98.36       98.12       97.76       97.27       96.70       96.17       95.74       95.29       94.90    
        94.58       94.34       94.19       94.13       94.20       94.38       94.62       94.91       95.25       96.19    
        97.43       98.36       99.01       99.45       99.73       99.90       100.0      -99.00      -99.00      -99.00    
       -99.00      -99.00      -99.00    
  15   -99.00       98.39       98.20       97.86       97.38       96.89       96.47       96.07       95.68       95.33    
        95.04       94.82       94.68       94.63       94.71       94.91       95.15       95.43       95.75       96.63    
        97.75       98.57       99.15       99.54       99.79       99.93       100.0      -99.00      -99.00      -99.00    
       -99.00      -99.00      -99.00    
  16   -99.00       98.41       98.23       97.90       97.45       97.02       96.67       96.31       95.97       95.65    
        95.40       95.20       95.06       95.04       95.16       95.33       95.56       95.83       96.13       96.96    
        97.99       98.73       99.25       99.61       99.87       100.0      -99.00      -99.00      -99.00      -99.00    
       -99.00      -99.00      -99.00    
  17   -99.00       98.40       98.20       97.86       97.45       97.12       96.79       96.46       96.15       95.85    
        95.63       95.47       95.36       95.38       95.47       95.63       95.84       96.10       96.39       97.19    
        98.14       98.82       99.28       99.67       100.0      -99.00      -99.00      -99.00      -99.00      -99.00    
       -99.00      -99.00      -99.00    
  18   -99.00      -99.00       98.11       97.82       97.41       97.12       96.82       96.49       96.23       96.01    
        95.87       95.73       95.58       95.56       95.63       95.78       95.99       96.24       96.53       97.30    
        98.22       98.84       99.18      -99.00      -99.00      -99.00      -99.00      -99.00      -99.00      -99.00    
       -99.00      -99.00      -99.00    
  19   -99.00      -99.00      -99.00      -99.00       97.27       97.03       96.76       96.51       96.33       96.15    
        96.01       95.92      -99.00      -99.00      -99.00      -99.00      -99.00      -99.00      -99.00      -99.00    
       -99.00      -99.00      -99.00      -99.00      -99.00      -99.00      -99.00      -99.00      -99.00      -99.00    
       -99.00      -99.00      -99.00    

 HEAD WILL BE SAVED ON UNIT   51 AT END OF TIME STEP   21, STRESS PERIOD    1

 DRAWDOWN WILL BE SAVED ON UNIT   52 AT END OF TIME STEP   21, STRESS PERIOD    1
1
  VOLUMETRIC BUDGET FOR ENTIRE MODEL AT END OF TIME STEP   21, STRESS PERIOD   1
  ------------------------------------------------------------------------------

     CUMULATIVE VOLUMES      L**3       RATES FOR THIS TIME STEP      L**3/T
     ------------------                 ------------------------

           IN:                                      IN:
           ---                                      ---
             STORAGE =     1902568.2500               STORAGE =       52610.3867
       CONSTANT HEAD =        5196.4497         CONSTANT HEAD =        1003.1789
               WELLS =           0.0000                 WELLS =           0.0000
       RIVER LEAKAGE =       28123.2734         RIVER LEAKAGE =        2080.6057
            RECHARGE =       63977.7578              RECHARGE =        4920.0000

            TOTAL IN =     1999865.7500              TOTAL IN =       60614.1719

          OUT:                                     OUT:
          ----                                     ----
             STORAGE =     1478378.1250               STORAGE =       21524.0918
       CONSTANT HEAD =        1347.6162         CONSTANT HEAD =          78.8867
               WELLS =      455126.3125                 WELLS =       35000.0000
       RIVER LEAKAGE =       65006.4922         RIVER LEAKAGE =        4011.1670
            RECHARGE =           0.0000              RECHARGE =           0.0000

           TOTAL OUT =     1999858.5000             TOTAL OUT =       60614.1445

            IN - OUT =           7.2500              IN - OUT =       2.7344E-02

 PERCENT DISCREPANCY =           0.00     PERCENT DISCREPANCY =           0.00






         TIME SUMMARY AT END OF TIME STEP   21 IN STRESS PERIOD    1
                    SECONDS     MINUTES      HOURS       DAYS        YEARS
                    -----------------------------------------------------------
   TIME STEP LENGTH 3.74579E+05  6243.0      104.05      4.3354     1.18697E-02
 STRESS PERIOD TIME 1.12351E+06  18725.      312.09      13.004     3.56019E-02
         TOTAL TIME 1.12351E+06  18725.      312.09      13.004     3.56019E-02
1
 
 SOLVING FOR HEAD 

 OUTPUT CONTROL FOR STRESS PERIOD    1   TIME STEP   22
    SAVE HEAD FOR ALL LAYERS
    SAVE DRAWDOWN FOR ALL LAYERS
    SAVE BUDGET
    PRINT HEAD FOR ALL LAYERS
    PRINT BUDGET
 UBDSV1 SAVING "         STORAGE" ON UNIT  53 AT TIME STEP 22, STRESS PERIOD   1
 UBDSV2 SAVING "   CONSTANT HEAD" ON UNIT  53 AT TIME STEP 22, STRESS PERIOD   1
 UBDSV1 SAVING "FLOW RIGHT FACE " ON UNIT  53 AT TIME STEP 22, STRESS PERIOD   1
 UBDSV1 SAVING "FLOW FRONT FACE " ON UNIT  53 AT TIME STEP 22, STRESS PERIOD   1
1
              HEAD IN LAYER   1 AT END OF TIME STEP  22 IN STRESS PERIOD    1
  ---------------------------------------------------------------------------

            1           2           3           4           5           6           7           8           9          10
           11          12          13          14          15          16          17          18          19          20
           21          22          23          24          25          26          27          28          29          30
           31          32          33
 ........................................................................................................................
   1   -99.00      -99.00      -99.00      -99.00      -99.00      -99.00      -99.00      -99.00      -99.00      -99.00    
       -99.00      -99.00       90.73       90.79       90.96       91.20       91.55       92.03       92.62       93.26    
        93.89       94.49       95.68       97.12       98.15       98.86       99.33       99.64       99.84       99.96    
        100.0       100.1      -99.00    
   2   -99.00      -99.00       95.98       95.72       95.28       94.73       94.10       93.43       92.75       92.10    
        91.54       91.10       90.77       90.68       90.73       90.98       91.34       91.85       92.47       93.17    
        93.85       94.53       95.82       97.23       98.22       98.90       99.36       99.66       99.85       99.96    
        100.0       100.1       100.1    
   3   -99.00       96.26       96.03       95.68       95.21       94.66       94.04       93.39       92.72       92.09    
        91.52       91.01       90.61       90.40       90.38       90.57       90.98       91.54       92.19       93.02    
        93.76       94.86       96.28       97.46       98.34       98.97       99.40       99.68       99.86       99.97    
        100.0       100.1       100.1    
   4    96.44       96.27       95.97       95.55       95.05       94.50       93.92       93.30       92.68       92.08    
        91.47       90.86       90.42       90.14       89.96       89.97       90.46       91.10       91.71       92.78    
        94.07       95.39       96.64       97.68       98.48       99.05       99.45       99.71       99.87       99.97    
        100.0       100.1       100.1    
   5    96.38       96.18       95.81       95.30       94.74       94.24       93.73       93.19       92.63       92.06    
        91.43       90.83       90.36       89.93       89.40       88.91       89.80       90.68       91.37       92.60    
        94.24       95.67       96.89       97.86       98.60       99.13       99.50       99.75       99.90       99.98    
        100.0       100.0       100.0    
   6    96.29       96.04       95.56       94.90       94.21       93.84       93.49       93.08       92.62       92.08    
        91.48       90.96       90.48       89.87       88.85       86.49       89.15       90.44       91.23       92.54    
        94.33       95.84       97.05       98.00       98.71       99.22       99.57       99.80       99.93       99.99    
        100.0       100.0       100.0    
   7    96.21       95.91       95.28       94.32       93.19       93.27       93.24       93.00       92.66       92.17    
        91.69       91.25       90.79       90.29       89.68       89.10       89.90       90.69       91.32       92.61    
        94.44       95.97       97.18       98.11       98.81       99.30       99.65       99.87       100.0       100.0    
        100.0      -99.00      -99.00    
   8    96.22       95.88       95.13       93.73       90.79       92.70       93.12       93.02       92.76       92.42    
        92.01       91.62       91.24       90.87       90.53       90.37       90.66       91.09       91.53       92.76    
        94.57       96.10       97.31       98.22       98.90       99.41       99.78       100.0      -99.00      -99.00    
       -99.00      -99.00      -99.00    
   9    96.35       96.05       95.43       94.49       93.37       93.48       93.48       93.26       93.00       92.70    
        92.37       92.04       91.73       91.47       91.27       91.20       91.31       91.48       91.66       92.91    
        94.75       96.26       97.44       98.33       99.00       99.52       100.0      -99.00      -99.00      -99.00    
       -99.00      -99.00      -99.00    
  10    96.56       96.32       95.86       95.22       94.58       94.26       93.99       93.65       93.33       93.07    
        92.77       92.49       92.24       92.05       91.92       91.88       91.90       91.87       91.46       93.09    
        94.99       96.47       97.60       98.45       99.09       99.58       100.0      -99.00      -99.00      -99.00    
       -99.00      -99.00      -99.00    
  11    96.80       96.62       96.27       95.79       95.30       94.88       94.50       94.08       93.73       93.46    
        93.20       92.95       92.75       92.60       92.52       92.51       92.55       92.61       92.69       93.79    
        95.41       96.75       97.79       98.58       99.17       99.63       100.0      -99.00      -99.00      -99.00    
       -99.00      -99.00      -99.00    
  12    97.03       96.88       96.60       96.22       95.78       95.35       94.97       94.55       94.15       93.88    
        93.62       93.40       93.23       93.12       93.08       93.10       93.19       93.32       93.53       94.47    
        95.87       97.06       98.00       98.72       99.26       99.67       100.0      -99.00      -99.00      -99.00    
       -99.00      -99.00      -99.00    
  13    97.20       97.08       96.85       96.51       96.11       95.66       95.27       94.94       94.57       94.28    
        94.03       93.82       93.66       93.58       93.57       93.63       93.75       93.93       94.18       95.04    
        96.29       97.36       98.21       98.86       99.35       99.71       100.0      -99.00      -99.00      -99.00    
       -99.00      -99.00      -99.00    
  14    97.30       97.21       97.01       96.71       96.32       95.89       95.51       95.20       94.89       94.62    
        94.38       94.20       94.06       93.97       93.99       94.09       94.24       94.44       94.70       95.51    
        96.66       97.63       98.40       99.00       99.44       99.77       100.0      -99.00      -99.00      -99.00    
       -99.00      -99.00      -99.00    
  15   -99.00       97.26       97.10       96.81       96.42       96.04       95.72       95.43       95.15       94.89    
        94.68       94.50       94.38       94.31       94.35       94.47       94.64       94.85       95.11       95.88    
        96.96       97.85       98.57       99.13       99.56       99.84       100.0      -99.00      -99.00      -99.00    
       -99.00      -99.00      -99.00    
  16   -99.00       97.29       97.13       96.85       96.48       96.13       95.86       95.58       95.32       95.09    
        94.89       94.73       94.61       94.59       94.66       94.78       94.95       95.16       95.41       96.16    
        97.18       98.01       98.68       99.26       99.72       100.0      -99.00      -99.00      -99.00      -99.00    
       -99.00      -99.00      -99.00    
  17   -99.00       97.29       97.11       96.81       96.47       96.20       95.93       95.67       95.42       95.19    
        95.02       94.89       94.80       94.81       94.87       94.99       95.16       95.37       95.62       96.34    
        97.31       98.09       98.71       99.36       100.0      -99.00      -99.00      -99.00      -99.00      -99.00    
       -99.00      -99.00      -99.00    
  18   -99.00      -99.00       97.03       96.77       96.42       96.18       95.93       95.66       95.45       95.28    
        95.18       95.07       94.95       94.94       94.99       95.10       95.26       95.47       95.72       96.43    
        97.36       98.07       98.50      -99.00      -99.00      -99.00      -99.00      -99.00      -99.00      -99.00    
       -99.00      -99.00      -99.00    
  19   -99.00      -99.00      -99.00      -99.00       96.29       96.09       95.87       95.66       95.52       95.38    
        95.27       95.20      -99.00      -99.00      -99.00      -99.00      -99.00      -99.00      -99.00      -99.00    
       -99.00      -99.00      -99.00      -99.00      -99.00      -99.00      -99.00      -99.00      -99.00      -99.00    
       -99.00      -99.00      -99.00    

 HEAD WILL BE SAVED ON UNIT   51 AT END OF TIME STEP   22, STRESS PERIOD    1

 DRAWDOWN WILL BE SAVED ON UNIT   52 AT END OF TIME STEP   22, STRESS PERIOD    1
1
  VOLUMETRIC BUDGET FOR ENTIRE MODEL AT END OF TIME STEP   22, STRESS PERIOD   1
  ------------------------------------------------------------------------------

     CUMULATIVE VOLUMES      L**3       RATES FOR THIS TIME STEP      L**3/T
     ------------------                 ------------------------

           IN:                                      IN:
           ---                                      ---
             STORAGE =     2148689.5000               STORAGE =       37846.7188
       CONSTANT HEAD =       19569.2676         CONSTANT HEAD =        2210.1458
               WELLS =           0.0000                 WELLS =           0.0000
       RIVER LEAKAGE =       41075.7578         RIVER LEAKAGE =        1991.7371
            RECHARGE =       95973.0547              RECHARGE =        4920.0000

            TOTAL IN =     2305307.5000              TOTAL IN =       46968.6016

          OUT:                                     OUT:
          ----                                     ----
             STORAGE =     1532634.8750               STORAGE =        8343.1992
       CONSTANT HEAD =        1638.4648         CONSTANT HEAD =          44.7245
               WELLS =      682735.1250                 WELLS =       35000.0000
       RIVER LEAKAGE =       88291.9688         RIVER LEAKAGE =        3580.6689
            RECHARGE =           0.0000              RECHARGE =           0.0000

           TOTAL OUT =     2305300.5000             TOTAL OUT =       46968.5898

            IN - OUT =           7.0000              IN - OUT =       1.1719E-02

 PERCENT DISCREPANCY =           0.00     PERCENT DISCREPANCY =           0.00






         TIME SUMMARY AT END OF TIME STEP   22 IN STRESS PERIOD    1
                    SECONDS     MINUTES      HOURS       DAYS        YEARS
                    -----------------------------------------------------------
   TIME STEP LENGTH 5.61869E+05  9364.5      156.07      6.5031     1.78045E-02
 STRESS PERIOD TIME 1.68538E+06  28090.      468.16      19.507     5.34065E-02
         TOTAL TIME 1.68538E+06  28090.      468.16      19.507     5.34065E-02
1
 
 SOLVING FOR HEAD 

 OUTPUT CONTROL FOR STRESS PERIOD    1   TIME STEP   23
    SAVE HEAD FOR ALL LAYERS
    SAVE DRAWDOWN FOR ALL LAYERS
    SAVE BUDGET
    PRINT HEAD FOR ALL LAYERS
    PRINT BUDGET
 UBDSV1 SAVING "         STORAGE" ON UNIT  53 AT TIME STEP 23, STRESS PERIOD   1
 UBDSV2 SAVING "   CONSTANT HEAD" ON UNIT  53 AT TIME STEP 23, STRESS PERIOD   1
 UBDSV1 SAVING "FLOW RIGHT FACE " ON UNIT  53 AT TIME STEP 23, STRESS PERIOD   1
 UBDSV1 SAVING "FLOW FRONT FACE " ON UNIT  53 AT TIME STEP 23, STRESS PERIOD   1
1
              HEAD IN LAYER   1 AT END OF TIME STEP  23 IN STRESS PERIOD    1
  ---------------------------------------------------------------------------

            1           2           3           4           5           6           7           8           9          10
           11          12          13          14          15          16          17          18          19          20
           21          22          23          24          25          26          27          28          29          30
           31          32          33
 ........................................................................................................................
   1   -99.00      -99.00      -99.00      -99.00      -99.00      -99.00      -99.00      -99.00      -99.00      -99.00    
       -99.00      -99.00       91.13       91.11       91.13       91.23       91.45       91.79       92.24       92.75    
        93.26       93.77       94.84       96.24       97.32       98.15       98.76       99.21       99.52       99.73    
        99.87       99.93      -99.00    
   2   -99.00      -99.00       94.56       94.40       94.13       93.80       93.44       93.05       92.65       92.25    
        91.87       91.52       91.18       91.00       90.91       91.02       91.26       91.63       92.10       92.66    
        93.22       93.80       94.97       96.34       97.40       98.20       98.80       99.23       99.54       99.75    
        99.88       99.96      100.00    
   3   -99.00       94.73       94.57       94.35       94.06       93.74       93.39       93.02       92.63       92.24    
        91.85       91.43       91.01       90.73       90.58       90.65       90.93       91.35       91.86       92.53    
        93.14       94.08       95.39       96.56       97.53       98.29       98.86       99.28       99.57       99.77    
        99.89       99.97       100.0    
   4    94.83       94.71       94.50       94.22       93.90       93.59       93.28       92.95       92.60       92.24    
        91.80       91.27       90.81       90.47       90.19       90.08       90.44       90.95       91.44       92.31    
        93.39       94.55       95.73       96.80       97.69       98.40       98.94       99.34       99.62       99.80    
        99.91       99.98       100.0    
   5    94.77       94.62       94.34       93.97       93.61       93.34       93.11       92.86       92.57       92.22    
        91.75       91.22       90.73       90.25       89.64       89.03       89.80       90.56       91.15       92.16    
        93.54       94.82       95.98       97.00       97.85       98.53       99.05       99.43       99.69       99.85    
        99.94       99.99       100.0    
   6    94.69       94.49       94.10       93.58       93.09       92.96       92.89       92.76       92.56       92.24    
        91.77       91.30       90.82       90.17       89.08       86.62       89.17       90.34       91.02       92.12    
        93.65       95.00       96.18       97.18       98.01       98.67       99.19       99.56       99.80       99.91    
        99.97       100.0       100.0    
   7    94.63       94.37       93.84       93.03       92.09       92.41       92.65       92.69       92.59       92.29    
        91.92       91.54       91.10       90.56       89.88       89.21       89.90       90.59       91.12       92.21    
        93.77       95.15       96.34       97.34       98.17       98.84       99.36       99.74       100.0       100.0    
        100.0      -99.00      -99.00    
   8    94.66       94.36       93.71       92.45       89.70       91.84       92.54       92.72       92.68       92.47    
        92.17       91.84       91.48       91.08       90.69       90.44       90.64       90.97       91.31       92.35    
        93.93       95.32       96.51       97.51       98.33       99.03       99.61       100.0      -99.00      -99.00    
       -99.00      -99.00      -99.00    
   9    94.81       94.55       94.03       93.22       92.29       92.63       92.88       92.94       92.87       92.69    
        92.45       92.18       91.90       91.61       91.37       91.22       91.24       91.32       91.42       92.49    
        94.10       95.50       96.68       97.67       98.50       99.24       100.0      -99.00      -99.00      -99.00    
       -99.00      -99.00      -99.00    
  10    95.04       94.85       94.47       93.97       93.49       93.39       93.36       93.27       93.13       92.98    
        92.76       92.54       92.31       92.11       91.94       91.83       91.77       91.65       91.17       92.64    
        94.34       95.73       96.88       97.83       98.63       99.34       100.0      -99.00      -99.00      -99.00    
       -99.00      -99.00      -99.00    
  11    95.31       95.16       94.89       94.54       94.21       93.99       93.82       93.63       93.44       93.27    
        93.09       92.89       92.71       92.56       92.44       92.38       92.35       92.33       92.34       93.30    
        94.75       96.02       97.10       98.00       98.75       99.40       100.0      -99.00      -99.00      -99.00    
       -99.00      -99.00      -99.00    
  12    95.55       95.44       95.24       94.97       94.68       94.43       94.23       94.00       93.75       93.58    
        93.40       93.23       93.08       92.97       92.90       92.87       92.89       92.97       93.12       93.92    
        95.19       96.34       97.33       98.16       98.87       99.47       100.0      -99.00      -99.00      -99.00    
       -99.00      -99.00      -99.00    
  13    95.75       95.67       95.50       95.27       95.00       94.72       94.50       94.29       94.05       93.86    
        93.69       93.53       93.40       93.32       93.29       93.31       93.37       93.50       93.69       94.44    
        95.59       96.64       97.55       98.33       98.99       99.53       100.0      -99.00      -99.00      -99.00    
       -99.00      -99.00      -99.00    
  14    95.86       95.82       95.68       95.47       95.21       94.94       94.68       94.48       94.28       94.10    
        93.93       93.80       93.69       93.61       93.61       93.67       93.77       93.92       94.14       94.85    
        95.93       96.90       97.76       98.50       99.12       99.61       100.0      -99.00      -99.00      -99.00    
       -99.00      -99.00      -99.00    
  15   -99.00       95.90       95.79       95.59       95.32       95.06       94.84       94.64       94.45       94.28    
        94.13       94.01       93.91       93.85       93.88       93.97       94.09       94.26       94.48       95.17    
        96.19       97.12       97.94       98.67       99.29       99.73       100.0      -99.00      -99.00      -99.00    
       -99.00      -99.00      -99.00    
  16   -99.00       95.95       95.84       95.64       95.37       95.13       94.94       94.75       94.57       94.40    
        94.27       94.16       94.07       94.05       94.11       94.20       94.33       94.51       94.73       95.40    
        96.38       97.26       98.07       98.85       99.55       100.0      -99.00      -99.00      -99.00      -99.00    
       -99.00      -99.00      -99.00    
  17   -99.00       95.97       95.84       95.62       95.37       95.17       94.98       94.79       94.62       94.46    
        94.34       94.25       94.20       94.21       94.27       94.36       94.50       94.67       94.89       95.55    
        96.49       97.31       98.07       99.01       100.0      -99.00      -99.00      -99.00      -99.00      -99.00    
       -99.00      -99.00      -99.00    
  18   -99.00      -99.00       95.78       95.59       95.33       95.15       94.97       94.77       94.63       94.51    
        94.45       94.38       94.30       94.30       94.35       94.44       94.58       94.76       94.97       95.61    
        96.52       97.26       97.75      -99.00      -99.00      -99.00      -99.00      -99.00      -99.00      -99.00    
       -99.00      -99.00      -99.00    
  19   -99.00      -99.00      -99.00      -99.00       95.23       95.07       94.91       94.76       94.68       94.58    
        94.51       94.47      -99.00      -99.00      -99.00      -99.00      -99.00      -99.00      -99.00      -99.00    
       -99.00      -99.00      -99.00      -99.00      -99.00      -99.00      -99.00      -99.00      -99.00      -99.00    
       -99.00      -99.00      -99.00    

 HEAD WILL BE SAVED ON UNIT   51 AT END OF TIME STEP   23, STRESS PERIOD    1

 DRAWDOWN WILL BE SAVED ON UNIT   52 AT END OF TIME STEP   23, STRESS PERIOD    1
1
  VOLUMETRIC BUDGET FOR ENTIRE MODEL AT END OF TIME STEP   23, STRESS PERIOD   1
  ------------------------------------------------------------------------------

     CUMULATIVE VOLUMES      L**3       RATES FOR THIS TIME STEP      L**3/T
     ------------------                 ------------------------

           IN:                                      IN:
           ---                                      ---
             STORAGE =     2428649.5000               STORAGE =       28700.1094
       CONSTANT HEAD =       56132.1953         CONSTANT HEAD =        3748.2507
               WELLS =           0.0000                 WELLS =           0.0000
       RIVER LEAKAGE =       61071.9609         RIVER LEAKAGE =        2049.9119
            RECHARGE =      143966.0000              RECHARGE =        4920.0000

            TOTAL IN =     2689819.7500              TOTAL IN =       39418.2695

          OUT:                                     OUT:
          ----                                     ----
             STORAGE =     1546527.7500               STORAGE =        1424.2346
       CONSTANT HEAD =        1674.0431         CONSTANT HEAD =           3.6473
               WELLS =     1024148.3750                 WELLS =       35000.0000
       RIVER LEAKAGE =      117461.9922         RIVER LEAKAGE =        2990.3672
            RECHARGE =           0.0000              RECHARGE =           0.0000

           TOTAL OUT =     2689812.0000             TOTAL OUT =       39418.2500

            IN - OUT =           7.7500              IN - OUT =       1.9531E-02

 PERCENT DISCREPANCY =           0.00     PERCENT DISCREPANCY =           0.00






         TIME SUMMARY AT END OF TIME STEP   23 IN STRESS PERIOD    1
                    SECONDS     MINUTES      HOURS       DAYS        YEARS
                    -----------------------------------------------------------
   TIME STEP LENGTH 8.42803E+05  14047.      234.11      9.7547     2.67068E-02
 STRESS PERIOD TIME 2.52818E+06  42136.      702.27      29.261     8.01133E-02
         TOTAL TIME 2.52818E+06  42136.      702.27      29.261     8.01133E-02
1
 
 SOLVING FOR HEAD 

 OUTPUT CONTROL FOR STRESS PERIOD    1   TIME STEP   24
    SAVE HEAD FOR ALL LAYERS
    SAVE DRAWDOWN FOR ALL LAYERS
    SAVE BUDGET
    PRINT HEAD FOR ALL LAYERS
    PRINT BUDGET
 UBDSV1 SAVING "         STORAGE" ON UNIT  53 AT TIME STEP 24, STRESS PERIOD   1
 UBDSV2 SAVING "   CONSTANT HEAD" ON UNIT  53 AT TIME STEP 24, STRESS PERIOD   1
 UBDSV1 SAVING "FLOW RIGHT FACE " ON UNIT  53 AT TIME STEP 24, STRESS PERIOD   1
 UBDSV1 SAVING "FLOW FRONT FACE " ON UNIT  53 AT TIME STEP 24, STRESS PERIOD   1
1
              HEAD IN LAYER   1 AT END OF TIME STEP  24 IN STRESS PERIOD    1
  ---------------------------------------------------------------------------

            1           2           3           4           5           6           7           8           9          10
           11          12          13          14          15          16          17          18          19          20
           21          22          23          24          25          26          27          28          29          30
           31          32          33
 ........................................................................................................................
   1   -99.00      -99.00      -99.00      -99.00      -99.00      -99.00      -99.00      -99.00      -99.00      -99.00    
       -99.00      -99.00       91.00       90.96       90.91       90.95       91.11       91.39       91.77       92.20    
        92.65       93.10       94.09       95.42       96.51       97.40       98.10       98.65       99.07       99.37    
        99.56       99.67      -99.00    
   2   -99.00      -99.00       93.07       92.98       92.85       92.69       92.52       92.32       92.11       91.87    
        91.60       91.33       91.03       90.84       90.69       90.74       90.92       91.23       91.64       92.12    
        92.62       93.14       94.21       95.52       96.59       97.46       98.15       98.69       99.10       99.39    
        99.60       99.72       99.80    
   3   -99.00       93.11       93.04       92.92       92.77       92.62       92.46       92.29       92.09       91.85    
        91.58       91.23       90.84       90.54       90.35       90.38       90.60       90.96       91.41       92.00    
        92.53       93.38       94.60       95.74       96.74       97.57       98.24       98.77       99.16       99.45    
        99.64       99.77       99.83    
   4    93.13       93.07       92.94       92.78       92.61       92.47       92.35       92.22       92.05       91.84    
        91.51       91.05       90.61       90.26       89.95       89.80       90.11       90.57       91.01       91.79    
        92.75       93.81       94.92       95.98       96.92       97.72       98.37       98.88       99.27       99.53    
        99.71       99.82       99.87    
   5    93.07       92.97       92.77       92.52       92.31       92.22       92.18       92.12       92.01       91.81    
        91.44       90.98       90.51       90.02       89.39       88.75       89.47       90.18       90.72       91.63    
        92.89       94.06       95.18       96.21       97.12       97.90       98.54       99.05       99.41       99.65    
        99.80       99.90       99.93    
   6    92.99       92.83       92.53       92.13       91.79       91.84       91.96       92.02       92.00       91.81    
        91.44       91.02       90.57       89.92       88.81       86.32       88.83       89.95       90.59       91.60    
        92.99       94.24       95.39       96.42       97.33       98.12       98.77       99.28       99.64       99.81    
        99.91       100.0       100.0    
   7    92.93       92.72       92.27       91.57       90.79       91.29       91.72       91.95       92.01       91.84    
        91.55       91.22       90.80       90.27       89.58       88.89       89.54       90.19       90.69       91.68    
        93.12       94.42       95.59       96.63       97.56       98.37       99.06       99.59       100.0       100.0    
        100.0      -99.00      -99.00    
   8    92.96       92.71       92.14       91.00       88.40       90.72       91.61       91.98       92.09       91.98    
        91.75       91.47       91.14       90.75       90.36       90.09       90.25       90.55       90.86       91.82    
        93.27       94.60       95.78       96.84       97.79       98.66       99.44       100.0      -99.00      -99.00    
       -99.00      -99.00      -99.00    
   9    93.12       92.91       92.46       91.77       90.99       91.50       91.94       92.19       92.26       92.16    
        91.99       91.77       91.51       91.24       90.99       90.83       90.82       90.87       90.94       91.94    
        93.45       94.80       95.99       97.05       98.02       98.96       100.0      -99.00      -99.00      -99.00    
       -99.00      -99.00      -99.00    
  10    93.37       93.21       92.91       92.52       92.19       92.25       92.40       92.48       92.49       92.40    
        92.25       92.07       91.88       91.68       91.51       91.39       91.31       91.17       90.66       92.06    
        93.68       95.03       96.21       97.25       98.20       99.10       100.0      -99.00      -99.00      -99.00    
       -99.00      -99.00      -99.00    
  11    93.65       93.54       93.34       93.10       92.90       92.84       92.83       92.80       92.73       92.65    
        92.53       92.38       92.23       92.09       91.97       91.89       91.84       91.81       91.79       92.69    
        94.08       95.33       96.45       97.45       98.35       99.19       100.0      -99.00      -99.00      -99.00    
       -99.00      -99.00      -99.00    
  12    93.91       93.84       93.70       93.54       93.38       93.27       93.21       93.12       92.99       92.89    
        92.78       92.66       92.54       92.44       92.37       92.34       92.34       92.40       92.53       93.28    
        94.50       95.65       96.69       97.64       98.49       99.27       100.0      -99.00      -99.00      -99.00    
       -99.00      -99.00      -99.00    
  13    94.12       94.08       93.98       93.85       93.70       93.57       93.47       93.36       93.22       93.11    
        93.00       92.90       92.81       92.74       92.71       92.72       92.78       92.88       93.06       93.76    
        94.88       95.95       96.93       97.83       98.64       99.35       100.0      -99.00      -99.00      -99.00    
       -99.00      -99.00      -99.00    
  14    94.24       94.25       94.18       94.07       93.92       93.78       93.63       93.52       93.40       93.29    
        93.20       93.11       93.04       92.99       92.99       93.04       93.13       93.27       93.47       94.14    
        95.20       96.21       97.15       98.03       98.80       99.46       100.0      -99.00      -99.00      -99.00    
       -99.00      -99.00      -99.00    
  15   -99.00       94.39       94.32       94.21       94.05       93.90       93.77       93.65       93.54       93.44    
        93.35       93.27       93.22       93.19       93.22       93.30       93.41       93.56       93.77       94.43    
        95.44       96.42       97.35       98.23       99.03       99.63       100.0      -99.00      -99.00      -99.00    
       -99.00      -99.00      -99.00    
  16   -99.00       94.47       94.40       94.28       94.12       93.97       93.85       93.74       93.63       93.53    
        93.45       93.39       93.34       93.34       93.40       93.49       93.62       93.78       93.99       94.63    
        95.61       96.55       97.48       98.46       99.38       100.0      -99.00      -99.00      -99.00      -99.00    
       -99.00      -99.00      -99.00    
  17   -99.00       94.50       94.43       94.30       94.14       94.01       93.89       93.77       93.67       93.57    
        93.50       93.46       93.44       93.47       93.53       93.62       93.75       93.92       94.13       94.75    
        95.69       96.58       97.46       98.66       100.0      -99.00      -99.00      -99.00      -99.00      -99.00    
       -99.00      -99.00      -99.00    
  18   -99.00      -99.00       94.41       94.29       94.12       94.00       93.88       93.76       93.67       93.61    
        93.58       93.55       93.52       93.54       93.60       93.69       93.82       93.99       94.20       94.81    
        95.70       96.48       97.03      -99.00      -99.00      -99.00      -99.00      -99.00      -99.00      -99.00    
       -99.00      -99.00      -99.00    
  19   -99.00      -99.00      -99.00      -99.00       94.06       93.95       93.84       93.75       93.71       93.66    
        93.63       93.61      -99.00      -99.00      -99.00      -99.00      -99.00      -99.00      -99.00      -99.00    
       -99.00      -99.00      -99.00      -99.00      -99.00      -99.00      -99.00      -99.00      -99.00      -99.00    
       -99.00      -99.00      -99.00    

 HEAD WILL BE SAVED ON UNIT   51 AT END OF TIME STEP   24, STRESS PERIOD    1

 DRAWDOWN WILL BE SAVED ON UNIT   52 AT END OF TIME STEP   24, STRESS PERIOD    1
1
  VOLUMETRIC BUDGET FOR ENTIRE MODEL AT END OF TIME STEP   24, STRESS PERIOD   1
  ------------------------------------------------------------------------------

     CUMULATIVE VOLUMES      L**3       RATES FOR THIS TIME STEP      L**3/T
     ------------------                 ------------------------

           IN:                                      IN:
           ---                                      ---
             STORAGE =     2788569.0000               STORAGE =       24598.1211
       CONSTANT HEAD =      135300.3594         CONSTANT HEAD =        5410.6201
               WELLS =           0.0000                 WELLS =           0.0000
       RIVER LEAKAGE =       94724.0312         RIVER LEAKAGE =        2299.8962
            RECHARGE =      215955.4062              RECHARGE =        4920.0000

            TOTAL IN =     3234548.7500              TOTAL IN =       37228.6406

          OUT:                                     OUT:
          ----                                     ----
             STORAGE =     1546527.7500               STORAGE =           0.0000
       CONSTANT HEAD =        1674.0431         CONSTANT HEAD =           0.0000
               WELLS =     1536268.2500                 WELLS =       35000.0000
       RIVER LEAKAGE =      150071.4062         RIVER LEAKAGE =        2228.6372
            RECHARGE =           0.0000              RECHARGE =           0.0000

           TOTAL OUT =     3234541.5000             TOTAL OUT =       37228.6367

            IN - OUT =           7.2500              IN - OUT =       3.9062E-03

 PERCENT DISCREPANCY =           0.00     PERCENT DISCREPANCY =           0.00






         TIME SUMMARY AT END OF TIME STEP   24 IN STRESS PERIOD    1
                    SECONDS     MINUTES      HOURS       DAYS        YEARS
                    -----------------------------------------------------------
   TIME STEP LENGTH 1.26420E+06  21070.      351.17      14.632     4.00602E-02
 STRESS PERIOD TIME 3.79239E+06  63206.      1053.4      43.893     0.12017    
         TOTAL TIME 3.79239E+06  63206.      1053.4      43.893     0.12017    
1
 
 SOLVING FOR HEAD 

 OUTPUT CONTROL FOR STRESS PERIOD    1   TIME STEP   25
    SAVE HEAD FOR ALL LAYERS
    SAVE DRAWDOWN FOR ALL LAYERS
    SAVE BUDGET
    PRINT HEAD FOR ALL LAYERS
    PRINT BUDGET
 UBDSV1 SAVING "         STORAGE" ON UNIT  53 AT TIME STEP 25, STRESS PERIOD   1
 UBDSV2 SAVING "   CONSTANT HEAD" ON UNIT  53 AT TIME STEP 25, STRESS PERIOD   1
 UBDSV1 SAVING "FLOW RIGHT FACE " ON UNIT  53 AT TIME STEP 25, STRESS PERIOD   1
 UBDSV1 SAVING "FLOW FRONT FACE " ON UNIT  53 AT TIME STEP 25, STRESS PERIOD   1
1
              HEAD IN LAYER   1 AT END OF TIME STEP  25 IN STRESS PERIOD    1
  ---------------------------------------------------------------------------

            1           2           3           4           5           6           7           8           9          10
           11          12          13          14          15          16          17          18          19          20
           21          22          23          24          25          26          27          28          29          30
           31          32          33
 ........................................................................................................................
   1   -99.00      -99.00      -99.00      -99.00      -99.00      -99.00      -99.00      -99.00      -99.00      -99.00    
       -99.00      -99.00       90.28       90.24       90.19       90.21       90.37       90.64       91.00       91.42    
        91.85       92.29       93.25       94.58       95.70       96.64       97.41       98.04       98.53       98.91    
        99.16       99.30      -99.00    
   2   -99.00      -99.00       91.37       91.34       91.29       91.24       91.19       91.12       91.02       90.89    
        90.71       90.52       90.28       90.10       89.96       90.01       90.18       90.48       90.87       91.34    
        91.82       92.32       93.37       94.69       95.79       96.71       97.48       98.10       98.59       98.96    
        99.22       99.39       99.50    
   3   -99.00       91.34       91.32       91.27       91.21       91.17       91.13       91.08       91.00       90.87    
        90.69       90.41       90.06       89.79       89.60       89.63       89.85       90.20       90.64       91.22    
        91.74       92.57       93.76       94.92       95.95       96.85       97.60       98.22       98.70       99.06    
        99.32       99.48       99.57    
   4    91.30       91.28       91.21       91.11       91.04       91.02       91.02       91.01       90.96       90.85    
        90.61       90.22       89.82       89.49       89.20       89.05       89.36       89.81       90.24       91.00    
        91.94       92.99       94.10       95.18       96.17       97.04       97.79       98.40       98.87       99.21    
        99.45       99.61       99.68    
   5    91.24       91.16       91.02       90.86       90.74       90.77       90.85       90.91       90.91       90.82    
        90.53       90.13       89.70       89.24       88.62       87.98       88.71       89.42       89.95       90.85    
        92.08       93.24       94.37       95.44       96.42       97.29       98.04       98.65       99.11       99.42    
        99.63       99.77       99.83    
   6    91.15       91.02       90.78       90.46       90.22       90.38       90.62       90.81       90.90       90.81    
        90.52       90.16       89.74       89.12       88.02       85.54       88.05       89.18       89.82       90.81    
        92.18       93.44       94.61       95.69       96.69       97.58       98.36       98.99       99.45       99.68    
        99.84       100.0       100.0    
   7    91.09       90.91       90.52       89.90       89.22       89.83       90.39       90.74       90.92       90.83    
        90.62       90.33       89.95       89.45       88.78       88.10       88.76       89.40       89.90       90.89    
        92.32       93.63       94.83       95.95       96.98       97.92       98.76       99.45       100.0       100.0    
        100.0      -99.00      -99.00    
   8    91.13       90.91       90.39       89.33       86.83       89.27       90.28       90.79       91.00       90.96    
        90.80       90.57       90.27       89.92       89.54       89.28       89.45       89.75       90.06       91.02    
        92.48       93.82       95.06       96.21       97.29       98.31       99.28       100.0      -99.00      -99.00    
       -99.00      -99.00      -99.00    
   9    91.29       91.11       90.72       90.10       89.42       90.05       90.62       91.00       91.17       91.14    
        91.02       90.85       90.63       90.38       90.15       90.00       90.01       90.06       90.13       91.14    
        92.66       94.04       95.30       96.47       97.58       98.70       100.0      -99.00      -99.00      -99.00    
       -99.00      -99.00      -99.00    
  10    91.55       91.42       91.18       90.86       90.63       90.81       91.07       91.29       91.39       91.37    
        91.28       91.14       90.98       90.81       90.66       90.55       90.48       90.34       89.84       91.25    
        92.90       94.29       95.54       96.70       97.80       98.89       100.0      -99.00      -99.00      -99.00    
       -99.00      -99.00      -99.00    
  11    91.84       91.76       91.62       91.46       91.35       91.39       91.51       91.60       91.62       91.61    
        91.54       91.43       91.32       91.20       91.10       91.03       91.00       90.96       90.96       91.87    
        93.29       94.60       95.80       96.92       97.98       99.00       100.0      -99.00      -99.00      -99.00    
       -99.00      -99.00      -99.00    
  12    92.12       92.07       92.00       91.90       91.84       91.84       91.89       91.90       91.86       91.82    
        91.77       91.70       91.63       91.54       91.49       91.47       91.48       91.54       91.67       92.45    
        93.71       94.92       96.06       97.13       98.14       99.09       100.0      -99.00      -99.00      -99.00    
       -99.00      -99.00      -99.00    
  13    92.34       92.34       92.30       92.24       92.19       92.16       92.16       92.13       92.07       92.02    
        91.97       91.92       91.88       91.84       91.82       91.84       91.90       92.01       92.19       92.92    
        94.09       95.22       96.32       97.35       98.31       99.19       100.0      -99.00      -99.00      -99.00    
       -99.00      -99.00      -99.00    
  14    92.49       92.54       92.53       92.48       92.43       92.39       92.33       92.28       92.23       92.18    
        92.14       92.11       92.08       92.07       92.09       92.14       92.23       92.38       92.58       93.28    
        94.40       95.49       96.55       97.57       98.50       99.31       100.0      -99.00      -99.00      -99.00    
       -99.00      -99.00      -99.00    
  15   -99.00       92.72       92.70       92.65       92.59       92.53       92.46       92.41       92.36       92.31    
        92.28       92.26       92.24       92.25       92.30       92.38       92.50       92.66       92.87       93.56    
        94.63       95.70       96.76       97.81       98.78       99.53       100.0      -99.00      -99.00      -99.00    
       -99.00      -99.00      -99.00    
  16   -99.00       92.84       92.82       92.76       92.69       92.61       92.55       92.50       92.45       92.41    
        92.38       92.36       92.36       92.39       92.46       92.56       92.69       92.86       93.08       93.75    
        94.79       95.83       96.90       98.08       99.22       100.0      -99.00      -99.00      -99.00      -99.00    
       -99.00      -99.00      -99.00    
  17   -99.00       92.90       92.88       92.81       92.73       92.66       92.60       92.54       92.50       92.45    
        92.43       92.43       92.44       92.50       92.57       92.68       92.82       92.99       93.21       93.86    
        94.86       95.84       96.87       98.33       100.0      -99.00      -99.00      -99.00      -99.00      -99.00    
       -99.00      -99.00      -99.00    
  18   -99.00      -99.00       92.89       92.83       92.74       92.68       92.61       92.55       92.51       92.49    
        92.49       92.50       92.51       92.55       92.63       92.74       92.88       93.06       93.27       93.90    
        94.85       95.70       96.33      -99.00      -99.00      -99.00      -99.00      -99.00      -99.00      -99.00    
       -99.00      -99.00      -99.00    
  19   -99.00      -99.00      -99.00      -99.00       92.71       92.65       92.59       92.55       92.54       92.53    
        92.53       92.53      -99.00      -99.00      -99.00      -99.00      -99.00      -99.00      -99.00      -99.00    
       -99.00      -99.00      -99.00      -99.00      -99.00      -99.00      -99.00      -99.00      -99.00      -99.00    
       -99.00      -99.00      -99.00    

 HEAD WILL BE SAVED ON UNIT   51 AT END OF TIME STEP   25, STRESS PERIOD    1

 DRAWDOWN WILL BE SAVED ON UNIT   52 AT END OF TIME STEP   25, STRESS PERIOD    1
1
  VOLUMETRIC BUDGET FOR ENTIRE MODEL AT END OF TIME STEP   25, STRESS PERIOD   1
  ------------------------------------------------------------------------------

     CUMULATIVE VOLUMES      L**3       RATES FOR THIS TIME STEP      L**3/T
     ------------------                 ------------------------

           IN:                                      IN:
           ---                                      ---
             STORAGE =     3264934.5000               STORAGE =       21704.2871
       CONSTANT HEAD =      290308.5938         CONSTANT HEAD =        7062.5244
               WELLS =           0.0000                 WELLS =           0.0000
       RIVER LEAKAGE =      153138.6250         RIVER LEAKAGE =        2661.5010
            RECHARGE =      323939.5312              RECHARGE =        4920.0000

            TOTAL IN =     4032321.0000              TOTAL IN =       36348.3125

          OUT:                                     OUT:
          ----                                     ----
             STORAGE =     1546527.7500               STORAGE =           0.0000
       CONSTANT HEAD =        1674.0431         CONSTANT HEAD =           0.0000
               WELLS =     2304448.0000                 WELLS =       35000.0000
       RIVER LEAKAGE =      179663.9688         RIVER LEAKAGE =        1348.3036
            RECHARGE =           0.0000              RECHARGE =           0.0000

           TOTAL OUT =     4032313.7500             TOTAL OUT =       36348.3047

            IN - OUT =           7.2500              IN - OUT =       7.8125E-03

 PERCENT DISCREPANCY =           0.00     PERCENT DISCREPANCY =           0.00






         TIME SUMMARY AT END OF TIME STEP   25 IN STRESS PERIOD    1
                    SECONDS     MINUTES      HOURS       DAYS        YEARS
                    -----------------------------------------------------------
   TIME STEP LENGTH 1.89631E+06  31605.      526.75      21.948     6.00903E-02
 STRESS PERIOD TIME 5.68869E+06  94812.      1580.2      65.841     0.18026    
         TOTAL TIME 5.68869E+06  94812.      1580.2      65.841     0.18026    
1
 
 SOLVING FOR HEAD 

 OUTPUT CONTROL FOR STRESS PERIOD    1   TIME STEP   26
    SAVE HEAD FOR ALL LAYERS
    SAVE DRAWDOWN FOR ALL LAYERS
    SAVE BUDGET
    PRINT HEAD FOR ALL LAYERS
    PRINT BUDGET
 UBDSV1 SAVING "         STORAGE" ON UNIT  53 AT TIME STEP 26, STRESS PERIOD   1
 UBDSV2 SAVING "   CONSTANT HEAD" ON UNIT  53 AT TIME STEP 26, STRESS PERIOD   1
 UBDSV1 SAVING "FLOW RIGHT FACE " ON UNIT  53 AT TIME STEP 26, STRESS PERIOD   1
 UBDSV1 SAVING "FLOW FRONT FACE " ON UNIT  53 AT TIME STEP 26, STRESS PERIOD   1
1
              HEAD IN LAYER   1 AT END OF TIME STEP  26 IN STRESS PERIOD    1
  ---------------------------------------------------------------------------

            1           2           3           4           5           6           7           8           9          10
           11          12          13          14          15          16          17          18          19          20
           21          22          23          24          25          26          27          28          29          30
           31          32          33
 ........................................................................................................................
   1   -99.00      -99.00      -99.00      -99.00      -99.00      -99.00      -99.00      -99.00      -99.00      -99.00    
       -99.00      -99.00       88.97       88.95       88.93       88.98       89.15       89.44       89.82       90.26    
        90.71       91.18       92.19       93.59       94.79       95.82       96.68       97.39       97.97       98.41    
        98.71       98.89      -99.00    
   2   -99.00      -99.00       89.37       89.37       89.37       89.39       89.40       89.41       89.40       89.34    
        89.24       89.11       88.94       88.81       88.70       88.77       88.96       89.28       89.69       90.18    
        90.68       91.21       92.32       93.72       94.90       95.91       96.77       97.48       98.05       98.49    
        98.80       99.02       99.17    
   3   -99.00       89.30       89.31       89.29       89.29       89.32       89.35       89.38       89.37       89.33    
        89.22       89.01       88.72       88.48       88.33       88.39       88.62       88.99       89.45       90.05    
        90.60       91.47       92.74       93.98       95.10       96.08       96.93       97.64       98.21       98.64    
        98.95       99.16       99.27    
   4    89.23       89.22       89.18       89.14       89.12       89.17       89.24       89.31       89.34       89.31    
        89.14       88.82       88.48       88.18       87.91       87.79       88.13       88.60       89.05       89.84    
        90.82       91.92       93.11       94.27       95.36       96.33       97.18       97.89       98.45       98.87    
        99.17       99.36       99.46    
   5    89.16       89.11       89.00       88.88       88.82       88.92       89.08       89.22       89.30       89.28    
        89.07       88.73       88.35       87.92       87.33       86.72       87.47       88.20       88.76       89.69    
        90.98       92.21       93.42       94.58       95.66       96.65       97.51       98.23       98.79       99.17    
        99.44       99.63       99.71    
   6    89.08       88.97       88.76       88.49       88.31       88.54       88.86       89.13       89.30       89.28    
        89.07       88.76       88.38       87.79       86.73       84.28       86.81       87.96       88.62       89.65    
        91.10       92.43       93.69       94.88       96.00       97.02       97.93       98.69       99.27       99.56    
        99.75       100.0       100.0    
   7    89.03       88.86       88.50       87.94       87.31       88.00       88.64       89.08       89.33       89.32    
        89.17       88.92       88.59       88.12       87.49       86.83       87.52       88.18       88.70       89.74    
        91.25       92.65       93.96       95.20       96.37       97.46       98.46       99.29       100.0       100.0    
        100.0      -99.00      -99.00    
   8    89.07       88.87       88.38       87.37       84.94       87.45       88.55       89.15       89.44       89.45    
        89.34       89.16       88.90       88.59       88.24       88.01       88.21       88.53       88.87       89.88    
        91.43       92.88       94.23       95.52       96.75       97.95       99.11       100.0      -99.00      -99.00    
       -99.00      -99.00      -99.00    
   9    89.25       89.08       88.73       88.16       87.55       88.24       88.90       89.37       89.61       89.63    
        89.57       89.44       89.26       89.05       88.86       88.74       88.77       88.85       88.94       90.01    
        91.63       93.12       94.51       95.82       97.11       98.44       100.0      -99.00      -99.00      -99.00    
       -99.00      -99.00      -99.00    
  10    89.52       89.41       89.20       88.94       88.77       89.02       89.37       89.68       89.85       89.88    
        89.83       89.74       89.62       89.49       89.37       89.29       89.24       89.13       88.65       90.12    
        91.88       93.39       94.78       96.09       97.37       98.66       100.0      -99.00      -99.00      -99.00    
       -99.00      -99.00      -99.00    
  11    89.83       89.77       89.67       89.55       89.51       89.63       89.82       90.00       90.09       90.12    
        90.10       90.04       89.96       89.88       89.82       89.78       89.76       89.76       89.77       90.76    
        92.29       93.72       95.06       96.34       97.58       98.79       100.0      -99.00      -99.00      -99.00    
       -99.00      -99.00      -99.00    
  12    90.13       90.11       90.07       90.03       90.03       90.10       90.23       90.32       90.33       90.35    
        90.35       90.32       90.29       90.24       90.22       90.22       90.25       90.33       90.50       91.34    
        92.72       94.06       95.35       96.58       97.77       98.90       100.0      -99.00      -99.00      -99.00    
       -99.00      -99.00      -99.00    
  13    90.38       90.39       90.39       90.39       90.41       90.46       90.53       90.56       90.55       90.55    
        90.55       90.55       90.56       90.56       90.56       90.60       90.67       90.81       91.02       91.81    
        93.10       94.38       95.62       96.82       97.96       99.01       100.0      -99.00      -99.00      -99.00    
       -99.00      -99.00      -99.00    
  14    90.54       90.63       90.66       90.67       90.69       90.72       90.72       90.72       90.72       90.73    
        90.73       90.75       90.77       90.81       90.85       90.91       91.02       91.18       91.41       92.18    
        93.42       94.66       95.88       97.07       98.19       99.16       100.0      -99.00      -99.00      -99.00    
       -99.00      -99.00      -99.00    
  15   -99.00       90.86       90.87       90.88       90.88       90.89       90.87       90.86       90.86       90.87    
        90.88       90.90       90.94       90.99       91.06       91.15       91.28       91.46       91.70       92.46    
        93.66       94.88       96.11       97.36       98.52       99.43       100.0      -99.00      -99.00      -99.00    
       -99.00      -99.00      -99.00    
  16   -99.00       91.02       91.02       91.02       91.02       91.00       90.98       90.97       90.97       90.98    
        91.00       91.02       91.07       91.13       91.22       91.33       91.48       91.67       91.91       92.65    
        93.82       95.01       96.27       97.67       99.06       100.0      -99.00      -99.00      -99.00      -99.00    
       -99.00      -99.00      -99.00    
  17   -99.00       91.10       91.12       91.11       91.10       91.07       91.06       91.05       91.05       91.05    
        91.07       91.10       91.15       91.23       91.32       91.44       91.60       91.80       92.04       92.75    
        93.88       95.00       96.22       97.98       100.0      -99.00      -99.00      -99.00      -99.00      -99.00    
       -99.00      -99.00      -99.00    
  18   -99.00      -99.00       91.17       91.15       91.13       91.11       91.10       91.09       91.09       91.10    
        91.13       91.16       91.20       91.28       91.37       91.50       91.66       91.86       92.10       92.80    
        93.86       94.83       95.56      -99.00      -99.00      -99.00      -99.00      -99.00      -99.00      -99.00    
       -99.00      -99.00      -99.00    
  19   -99.00      -99.00      -99.00      -99.00       91.14       91.12       91.11       91.10       91.12       91.13    
        91.15       91.17      -99.00      -99.00      -99.00      -99.00      -99.00      -99.00      -99.00      -99.00    
       -99.00      -99.00      -99.00      -99.00      -99.00      -99.00      -99.00      -99.00      -99.00      -99.00    
       -99.00      -99.00      -99.00    

 HEAD WILL BE SAVED ON UNIT   51 AT END OF TIME STEP   26, STRESS PERIOD    1

 DRAWDOWN WILL BE SAVED ON UNIT   52 AT END OF TIME STEP   26, STRESS PERIOD    1
1
  VOLUMETRIC BUDGET FOR ENTIRE MODEL AT END OF TIME STEP   26, STRESS PERIOD   1
  ------------------------------------------------------------------------------

     CUMULATIVE VOLUMES      L**3       RATES FOR THIS TIME STEP      L**3/T
     ------------------                 ------------------------

           IN:                                      IN:
           ---                                      ---
             STORAGE =     3880951.7500               STORAGE =       18711.4219
       CONSTANT HEAD =      580168.1250         CONSTANT HEAD =        8804.4346
               WELLS =           0.0000                 WELLS =           0.0000
       RIVER LEAKAGE =      251685.8125         RIVER LEAKAGE =        2993.3547
            RECHARGE =      485915.7188              RECHARGE =        4920.0000

            TOTAL IN =     5198721.5000              TOTAL IN =       35429.2109

          OUT:                                     OUT:
          ----                                     ----
             STORAGE =     1546527.7500               STORAGE =           0.0000
       CONSTANT HEAD =        1674.0431         CONSTANT HEAD =           0.0000
               WELLS =     3456717.5000                 WELLS =       35000.0000
       RIVER LEAKAGE =      193794.4844         RIVER LEAKAGE =         429.2119
            RECHARGE =           0.0000              RECHARGE =           0.0000

           TOTAL OUT =     5198713.5000             TOTAL OUT =       35429.2109

            IN - OUT =           8.0000              IN - OUT =           0.0000

 PERCENT DISCREPANCY =           0.00     PERCENT DISCREPANCY =           0.00






         TIME SUMMARY AT END OF TIME STEP   26 IN STRESS PERIOD    1
                    SECONDS     MINUTES      HOURS       DAYS        YEARS
                    -----------------------------------------------------------
   TIME STEP LENGTH 2.84446E+06  47408.      790.13      32.922     9.01355E-02
 STRESS PERIOD TIME 8.53315E+06 1.42219E+05  2370.3      98.763     0.27040    
         TOTAL TIME 8.53315E+06 1.42219E+05  2370.3      98.763     0.27040    
1
 
 SOLVING FOR HEAD 

 OUTPUT CONTROL FOR STRESS PERIOD    1   TIME STEP   27
    SAVE HEAD FOR ALL LAYERS
    SAVE DRAWDOWN FOR ALL LAYERS
    SAVE BUDGET
    PRINT HEAD FOR ALL LAYERS
    PRINT BUDGET
 UBDSV1 SAVING "         STORAGE" ON UNIT  53 AT TIME STEP 27, STRESS PERIOD   1
 UBDSV2 SAVING "   CONSTANT HEAD" ON UNIT  53 AT TIME STEP 27, STRESS PERIOD   1
 UBDSV1 SAVING "FLOW RIGHT FACE " ON UNIT  53 AT TIME STEP 27, STRESS PERIOD   1
 UBDSV1 SAVING "FLOW FRONT FACE " ON UNIT  53 AT TIME STEP 27, STRESS PERIOD   1
1
              HEAD IN LAYER   1 AT END OF TIME STEP  27 IN STRESS PERIOD    1
  ---------------------------------------------------------------------------

            1           2           3           4           5           6           7           8           9          10
           11          12          13          14          15          16          17          18          19          20
           21          22          23          24          25          26          27          28          29          30
           31          32          33
 ........................................................................................................................
   1   -99.00      -99.00      -99.00      -99.00      -99.00      -99.00      -99.00      -99.00      -99.00      -99.00    
       -99.00      -99.00       87.17       87.18       87.20       87.28       87.49       87.81       88.22       88.71    
        89.20       89.71       90.82       92.38       93.72       94.88       95.86       96.69       97.36       97.87    
        98.24       98.45      -99.00    
   2   -99.00      -99.00       87.03       87.04       87.08       87.13       87.20       87.27       87.31       87.32    
        87.28       87.22       87.11       87.03       86.96       87.07       87.29       87.64       88.09       88.62    
        89.17       89.75       90.97       92.52       93.85       94.99       95.97       96.79       97.46       97.98    
        98.36       98.62       98.81    
   3   -99.00       86.93       86.95       86.97       87.00       87.07       87.15       87.23       87.29       87.31    
        87.26       87.12       86.89       86.70       86.59       86.68       86.95       87.35       87.85       88.50    
        89.09       90.04       91.44       92.82       94.09       95.21       96.18       97.01       97.67       98.19    
        98.57       98.82       98.96    
   4    86.85       86.85       86.83       86.81       86.83       86.92       87.05       87.17       87.26       87.30    
        87.20       86.94       86.65       86.39       86.17       86.08       86.45       86.95       87.43       88.28    
        89.35       90.56       91.87       93.18       94.40       95.52       96.50       97.33       98.00       98.50    
        98.86       99.11       99.23    
   5    86.78       86.74       86.65       86.56       86.54       86.68       86.90       87.10       87.24       87.28    
        87.14       86.86       86.53       86.13       85.58       85.01       85.80       86.56       87.14       88.14    
        89.54       90.89       92.23       93.54       94.78       95.91       96.92       97.77       98.44       98.91    
        99.24       99.49       99.58    
   6    86.71       86.61       86.42       86.18       86.04       86.32       86.70       87.03       87.26       87.31    
        87.15       86.90       86.56       86.01       84.98       82.57       85.14       86.32       87.01       88.12    
        89.69       91.16       92.56       93.91       95.19       96.38       97.46       98.36       99.06       99.42    
        99.67       100.0       100.0    
   7    86.67       86.51       86.18       85.64       85.06       85.80       86.50       87.00       87.32       87.37    
        87.27       87.07       86.77       86.34       85.74       85.12       85.85       86.55       87.10       88.22    
        89.87       91.42       92.89       94.30       95.64       96.93       98.12       99.13       100.0       100.0    
        100.0      -99.00      -99.00    
   8    86.73       86.54       86.08       85.10       82.71       85.27       86.43       87.10       87.46       87.51    
        87.45       87.31       87.09       86.81       86.51       86.31       86.55       86.91       87.28       88.38    
        90.08       91.69       93.21       94.68       96.11       97.53       98.92       100.0      -99.00      -99.00    
       -99.00      -99.00      -99.00    
   9    86.93       86.77       86.44       85.91       85.34       86.09       86.81       87.35       87.65       87.71    
        87.69       87.60       87.46       87.29       87.13       87.05       87.12       87.23       87.36       88.52    
        90.31       91.97       93.53       95.04       96.55       98.13       100.0      -99.00      -99.00      -99.00    
       -99.00      -99.00      -99.00    
  10    87.22       87.13       86.94       86.71       86.59       86.89       87.30       87.68       87.90       87.97    
        87.96       87.91       87.83       87.74       87.66       87.61       87.61       87.53       87.09       88.66    
        90.58       92.27       93.85       95.36       96.86       98.39       100.0      -99.00      -99.00      -99.00    
       -99.00      -99.00      -99.00    
  11    87.56       87.51       87.43       87.36       87.36       87.54       87.79       88.03       88.17       88.24    
        88.26       88.23       88.20       88.16       88.12       88.12       88.14       88.17       88.23       89.31    
        91.01       92.63       94.17       95.65       97.11       98.55       100.0      -99.00      -99.00      -99.00    
       -99.00      -99.00      -99.00    
  12    87.88       87.88       87.86       87.86       87.91       88.05       88.24       88.37       88.44       88.48    
        88.52       88.54       88.54       88.54       88.54       88.58       88.65       88.76       88.96       89.91    
        91.47       92.99       94.48       95.93       97.32       98.68       100.0      -99.00      -99.00      -99.00    
       -99.00      -99.00      -99.00    
  13    88.16       88.19       88.22       88.26       88.33       88.45       88.57       88.64       88.67       88.71    
        88.75       88.79       88.84       88.88       88.91       88.98       89.09       89.25       89.50       90.40    
        91.87       93.34       94.79       96.20       97.55       98.81       100.0      -99.00      -99.00      -99.00    
       -99.00      -99.00      -99.00    
  14    88.34       88.46       88.53       88.58       88.65       88.74       88.79       88.83       88.87       88.91    
        88.96       89.01       89.08       89.16       89.23       89.31       89.45       89.64       89.91       90.78    
        92.21       93.64       95.07       96.49       97.82       98.99       100.0      -99.00      -99.00      -99.00    
       -99.00      -99.00      -99.00    
  15   -99.00       88.74       88.78       88.83       88.89       88.95       88.97       89.00       89.04       89.09    
        89.14       89.20       89.28       89.38       89.47       89.57       89.72       89.94       90.21       91.07    
        92.46       93.87       95.33       96.81       98.21       99.31       100.0      -99.00      -99.00      -99.00    
       -99.00      -99.00      -99.00    
  16   -99.00       88.94       88.97       89.02       89.07       89.09       89.11       89.14       89.18       89.23    
        89.28       89.35       89.44       89.53       89.63       89.75       89.92       90.15       90.42       91.26    
        92.62       94.01       95.50       97.19       98.86       100.0      -99.00      -99.00      -99.00      -99.00    
       -99.00      -99.00      -99.00    
  17   -99.00       89.04       89.10       89.14       89.18       89.20       89.22       89.25       89.29       89.34    
        89.40       89.46       89.53       89.62       89.73       89.87       90.05       90.28       90.56       91.37    
        92.67       93.99       95.43       97.55       100.0      -99.00      -99.00      -99.00      -99.00      -99.00    
       -99.00      -99.00      -99.00    
  18   -99.00      -99.00       89.18       89.21       89.25       89.27       89.30       89.33       89.37       89.41    
        89.45       89.50       89.57       89.67       89.78       89.93       90.12       90.35       90.62       91.41    
        92.64       93.78       94.63      -99.00      -99.00      -99.00      -99.00      -99.00      -99.00      -99.00    
       -99.00      -99.00      -99.00    
  19   -99.00      -99.00      -99.00      -99.00       89.29       89.32       89.34       89.37       89.40       89.43    
        89.46       89.49      -99.00      -99.00      -99.00      -99.00      -99.00      -99.00      -99.00      -99.00    
       -99.00      -99.00      -99.00      -99.00      -99.00      -99.00      -99.00      -99.00      -99.00      -99.00    
       -99.00      -99.00      -99.00    

 HEAD WILL BE SAVED ON UNIT   51 AT END OF TIME STEP   27, STRESS PERIOD    1

 DRAWDOWN WILL BE SAVED ON UNIT   52 AT END OF TIME STEP   27, STRESS PERIOD    1
1
  VOLUMETRIC BUDGET FOR ENTIRE MODEL AT END OF TIME STEP   27, STRESS PERIOD   1
  ------------------------------------------------------------------------------

     CUMULATIVE VOLUMES      L**3       RATES FOR THIS TIME STEP      L**3/T
     ------------------                 ------------------------

           IN:                                      IN:
           ---                                      ---
             STORAGE =     4644356.5000               STORAGE =       15458.8584
       CONSTANT HEAD =     1113397.5000         CONSTANT HEAD =       10797.8350
               WELLS =           0.0000                 WELLS =           0.0000
       RIVER LEAKAGE =      440492.3438         RIVER LEAKAGE =        3823.3115
            RECHARGE =      728880.0000              RECHARGE =        4920.0000

            TOTAL IN =     6927126.5000              TOTAL IN =       35000.0039

          OUT:                                     OUT:
          ----                                     ----
             STORAGE =     1546527.7500               STORAGE =           0.0000
       CONSTANT HEAD =        1674.0431         CONSTANT HEAD =           0.0000
               WELLS =     5185122.0000                 WELLS =       35000.0000
       RIVER LEAKAGE =      193794.4844         RIVER LEAKAGE =           0.0000
            RECHARGE =           0.0000              RECHARGE =           0.0000

           TOTAL OUT =     6927118.5000             TOTAL OUT =       35000.0000

            IN - OUT =           8.0000              IN - OUT =       3.9062E-03

 PERCENT DISCREPANCY =           0.00     PERCENT DISCREPANCY =           0.00






         TIME SUMMARY AT END OF TIME STEP   27 IN STRESS PERIOD    1
                    SECONDS     MINUTES      HOURS       DAYS        YEARS
                    -----------------------------------------------------------
   TIME STEP LENGTH 4.26669E+06  71112.      1185.2      49.383     0.13520    
 STRESS PERIOD TIME 1.27998E+07 2.13331E+05  3555.5      148.15     0.40560    
         TOTAL TIME 1.27998E+07 2.13331E+05  3555.5      148.15     0.40560    
1
 
 SOLVING FOR HEAD 

 OUTPUT CONTROL FOR STRESS PERIOD    1   TIME STEP   28
    SAVE HEAD FOR ALL LAYERS
    SAVE DRAWDOWN FOR ALL LAYERS
    SAVE BUDGET
    PRINT HEAD FOR ALL LAYERS
    PRINT BUDGET
 UBDSV1 SAVING "         STORAGE" ON UNIT  53 AT TIME STEP 28, STRESS PERIOD   1
 UBDSV2 SAVING "   CONSTANT HEAD" ON UNIT  53 AT TIME STEP 28, STRESS PERIOD   1
 UBDSV1 SAVING "FLOW RIGHT FACE " ON UNIT  53 AT TIME STEP 28, STRESS PERIOD   1
 UBDSV1 SAVING "FLOW FRONT FACE " ON UNIT  53 AT TIME STEP 28, STRESS PERIOD   1
1
              HEAD IN LAYER   1 AT END OF TIME STEP  28 IN STRESS PERIOD    1
  ---------------------------------------------------------------------------

            1           2           3           4           5           6           7           8           9          10
           11          12          13          14          15          16          17          18          19          20
           21          22          23          24          25          26          27          28          29          30
           31          32          33
 ........................................................................................................................
   1   -99.00      -99.00      -99.00      -99.00      -99.00      -99.00      -99.00      -99.00      -99.00      -99.00    
       -99.00      -99.00       84.95       85.00       85.06       85.19       85.43       85.79       86.26       86.79    
        87.35       87.91       89.16       90.92       92.46       93.78       94.93       95.89       96.68       97.29    
        97.73       97.98      -99.00    
   2   -99.00      -99.00       84.33       84.36       84.42       84.51       84.62       84.73       84.82       84.88    
        84.91       84.91       84.87       84.83       84.82       84.97       85.23       85.62       86.12       86.71    
        87.32       87.97       89.33       91.09       92.60       93.92       95.06       96.02       96.81       97.43    
        97.89       98.20       98.43    
   3   -99.00       84.22       84.26       84.29       84.35       84.45       84.57       84.70       84.81       84.88    
        84.90       84.81       84.64       84.51       84.45       84.57       84.88       85.33       85.87       86.58    
        87.23       88.30       89.88       91.45       92.89       94.19       95.33       96.29       97.08       97.70    
        98.15       98.46       98.63    
   4    84.13       84.14       84.14       84.14       84.19       84.31       84.48       84.65       84.79       84.88    
        84.84       84.65       84.41       84.20       84.01       83.97       84.38       84.92       85.44       86.36    
        87.53       88.89       90.37       91.86       93.28       94.57       95.72       96.70       97.49       98.09    
        98.53       98.83       98.98    
   5    84.07       84.03       83.96       83.89       83.91       84.08       84.34       84.59       84.78       84.88    
        84.79       84.58       84.29       83.94       83.42       82.90       83.72       84.52       85.15       86.23    
        87.77       89.28       90.80       92.30       93.73       95.06       96.24       97.26       98.06       98.61    
        99.02       99.33       99.44    
   6    84.00       83.91       83.74       83.52       83.41       83.73       84.15       84.53       84.82       84.92    
        84.82       84.62       84.32       83.81       82.82       80.45       83.07       84.29       85.02       86.22    
        87.96       89.61       91.20       92.75       94.24       95.63       96.90       97.99       98.83       99.26    
        99.58       100.0       100.0    
   7    83.98       83.83       83.51       83.00       82.45       83.23       83.97       84.53       84.90       85.00    
        84.95       84.79       84.54       84.15       83.59       83.01       83.78       84.52       85.12       86.34    
        88.18       89.91       91.59       93.21       94.79       96.30       97.72       98.93       100.0       100.0    
        100.0      -99.00      -99.00    
   8    84.06       83.87       83.43       82.48       80.12       82.72       83.93       84.66       85.07       85.17    
        85.14       85.04       84.86       84.63       84.36       84.21       84.49       84.89       85.31       86.52    
        88.42       90.23       91.97       93.67       95.35       97.03       98.69       100.0      -99.00      -99.00    
       -99.00      -99.00      -99.00    
   9    84.27       84.13       83.81       83.31       82.77       83.56       84.33       84.92       85.28       85.38    
        85.39       85.34       85.24       85.11       84.99       84.95       85.06       85.23       85.40       86.69    
        88.67       90.55       92.35       94.11       95.88       97.75       100.0      -99.00      -99.00      -99.00    
       -99.00      -99.00      -99.00    
  10    84.59       84.50       84.34       84.13       84.05       84.39       84.85       85.28       85.55       85.65    
        85.68       85.66       85.62       85.57       85.53       85.53       85.56       85.54       85.14       86.84    
        88.98       90.90       92.71       94.48       96.25       98.07       100.0      -99.00      -99.00      -99.00    
       -99.00      -99.00      -99.00    
  11    84.95       84.91       84.85       84.80       84.84       85.06       85.36       85.65       85.83       85.93    
        85.99       86.00       86.00       86.00       86.01       86.05       86.11       86.19       86.29       87.51    
        89.44       91.29       93.07       94.82       96.54       98.26       100.0      -99.00      -99.00      -99.00    
       -99.00      -99.00      -99.00    
  12    85.29       85.30       85.31       85.34       85.43       85.60       85.84       86.02       86.12       86.19    
        86.27       86.32       86.36       86.39       86.44       86.52       86.63       86.80       87.05       88.13    
        89.91       91.68       93.42       95.13       96.79       98.41       100.0      -99.00      -99.00      -99.00    
       -99.00      -99.00      -99.00    
  13    85.59       85.64       85.70       85.77       85.88       86.04       86.21       86.31       86.37       86.44    
        86.51       86.59       86.67       86.75       86.82       86.93       87.08       87.30       87.60       88.64    
        90.34       92.05       93.76       95.44       97.05       98.57       100.0      -99.00      -99.00      -99.00    
       -99.00      -99.00      -99.00    
  14    85.79       85.94       86.03       86.12       86.23       86.37       86.45       86.52       86.59       86.66    
        86.74       86.83       86.93       87.04       87.15       87.27       87.45       87.69       88.01       89.03    
        90.69       92.38       94.08       95.77       97.36       98.78       100.0      -99.00      -99.00      -99.00    
       -99.00      -99.00      -99.00    
  15   -99.00       86.26       86.32       86.40       86.51       86.61       86.65       86.71       86.78       86.85    
        86.94       87.03       87.14       87.28       87.40       87.54       87.74       88.00       88.33       89.33    
        90.96       92.64       94.37       96.15       97.83       99.16       100.0      -99.00      -99.00      -99.00    
       -99.00      -99.00      -99.00    
  16   -99.00       86.48       86.54       86.62       86.71       86.77       86.82       86.88       86.94       87.02    
        87.10       87.20       87.32       87.44       87.57       87.73       87.95       88.22       88.54       89.53    
        91.12       92.78       94.57       96.60       98.61       100.0      -99.00      -99.00      -99.00      -99.00    
       -99.00      -99.00      -99.00    
  17   -99.00       86.61       86.69       86.77       86.86       86.90       86.95       87.01       87.08       87.16    
        87.24       87.33       87.43       87.54       87.68       87.86       88.08       88.35       88.68       89.64    
        91.17       92.74       94.47       97.03       100.0      -99.00      -99.00      -99.00      -99.00      -99.00    
       -99.00      -99.00      -99.00    
  18   -99.00      -99.00       86.80       86.86       86.95       87.00       87.05       87.12       87.18       87.24    
        87.29       87.36       87.47       87.59       87.74       87.92       88.15       88.42       88.75       89.67    
        91.12       92.47       93.50      -99.00      -99.00      -99.00      -99.00      -99.00      -99.00      -99.00    
       -99.00      -99.00      -99.00    
  19   -99.00      -99.00      -99.00      -99.00       87.02       87.07       87.12       87.18       87.21       87.26    
        87.30       87.34      -99.00      -99.00      -99.00      -99.00      -99.00      -99.00      -99.00      -99.00    
       -99.00      -99.00      -99.00      -99.00      -99.00      -99.00      -99.00      -99.00      -99.00      -99.00    
       -99.00      -99.00      -99.00    

 HEAD WILL BE SAVED ON UNIT   51 AT END OF TIME STEP   28, STRESS PERIOD    1

 DRAWDOWN WILL BE SAVED ON UNIT   52 AT END OF TIME STEP   28, STRESS PERIOD    1
1
  VOLUMETRIC BUDGET FOR ENTIRE MODEL AT END OF TIME STEP   28, STRESS PERIOD   1
  ------------------------------------------------------------------------------

     CUMULATIVE VOLUMES      L**3       RATES FOR THIS TIME STEP      L**3/T
     ------------------                 ------------------------

           IN:                                      IN:
           ---                                      ---
             STORAGE =     5569787.0000               STORAGE =       12493.2422
       CONSTANT HEAD =     2087607.0000         CONSTANT HEAD =       13151.7568
               WELLS =           0.0000                 WELLS =           0.0000
       RIVER LEAKAGE =      769012.6250         RIVER LEAKAGE =        4435.0000
            RECHARGE =     1093326.5000              RECHARGE =        4920.0000

            TOTAL IN =     9519734.0000              TOTAL IN =       35000.0000

          OUT:                                     OUT:
          ----                                     ----
             STORAGE =     1546527.7500               STORAGE =           0.0000
       CONSTANT HEAD =        1674.0431         CONSTANT HEAD =           0.0000
               WELLS =     7777729.0000                 WELLS =       35000.0000
       RIVER LEAKAGE =      193794.4844         RIVER LEAKAGE =           0.0000
            RECHARGE =           0.0000              RECHARGE =           0.0000

           TOTAL OUT =     9519725.0000             TOTAL OUT =       35000.0000

            IN - OUT =           9.0000              IN - OUT =           0.0000

 PERCENT DISCREPANCY =           0.00     PERCENT DISCREPANCY =           0.00






         TIME SUMMARY AT END OF TIME STEP   28 IN STRESS PERIOD    1
                    SECONDS     MINUTES      HOURS       DAYS        YEARS
                    -----------------------------------------------------------
   TIME STEP LENGTH 6.40004E+06 1.06667E+05  1777.8      74.074     0.20280    
 STRESS PERIOD TIME 1.91999E+07 3.19998E+05  5333.3      222.22     0.60841    
         TOTAL TIME 1.91999E+07 3.19998E+05  5333.3      222.22     0.60841    
1
 
 SOLVING FOR HEAD 

 OUTPUT CONTROL FOR STRESS PERIOD    1   TIME STEP   29
    SAVE HEAD FOR ALL LAYERS
    SAVE DRAWDOWN FOR ALL LAYERS
    SAVE BUDGET
    PRINT HEAD FOR ALL LAYERS
    PRINT BUDGET
 UBDSV1 SAVING "         STORAGE" ON UNIT  53 AT TIME STEP 29, STRESS PERIOD   1
 UBDSV2 SAVING "   CONSTANT HEAD" ON UNIT  53 AT TIME STEP 29, STRESS PERIOD   1
 UBDSV1 SAVING "FLOW RIGHT FACE " ON UNIT  53 AT TIME STEP 29, STRESS PERIOD   1
 UBDSV1 SAVING "FLOW FRONT FACE " ON UNIT  53 AT TIME STEP 29, STRESS PERIOD   1
1
              HEAD IN LAYER   1 AT END OF TIME STEP  29 IN STRESS PERIOD    1
  ---------------------------------------------------------------------------

            1           2           3           4           5           6           7           8           9          10
           11          12          13          14          15          16          17          18          19          20
           21          22          23          24          25          26          27          28          29          30
           31          32          33
 ........................................................................................................................
   1   -99.00      -99.00      -99.00      -99.00      -99.00      -99.00      -99.00      -99.00      -99.00      -99.00    
       -99.00      -99.00       82.39       82.47       82.59       82.77       83.04       83.46       83.98       84.58    
        85.21       85.84       87.26       89.26       91.02       92.55       93.88       95.00       95.93       96.65    
        97.17       97.47      -99.00    
   2   -99.00      -99.00       81.30       81.34       81.42       81.54       81.68       81.84       81.98       82.10    
        82.18       82.25       82.28       82.30       82.34       82.54       82.84       83.29       83.84       84.49    
        85.18       85.90       87.45       89.46       91.19       92.72       94.04       95.17       96.09       96.82    
        97.36       97.74       98.02    
   3   -99.00       81.17       81.22       81.26       81.35       81.48       81.64       81.81       81.97       82.09    
        82.17       82.15       82.04       81.97       81.96       82.13       82.49       82.98       83.58       84.36    
        85.09       86.29       88.08       89.87       91.53       93.04       94.36       95.50       96.43       97.15    
        97.70       98.07       98.27    
   4    81.07       81.09       81.10       81.12       81.19       81.34       81.55       81.77       81.96       82.10    
        82.12       81.99       81.81       81.65       81.51       81.52       81.97       82.56       83.13       84.13    
        85.44       86.96       88.65       90.36       91.99       93.50       94.84       95.99       96.93       97.64    
        98.17       98.53       98.71    
   5    81.01       80.98       80.92       80.88       80.91       81.12       81.42       81.71       81.95       82.11    
        82.08       81.93       81.69       81.38       80.91       80.44       81.31       82.16       82.82       84.01    
        85.72       87.43       89.16       90.88       92.54       94.08       95.48       96.67       97.62       98.29    
        98.78       99.16       99.30    
   6    80.95       80.87       80.71       80.51       80.43       80.78       81.24       81.67       82.00       82.16    
        82.12       81.97       81.71       81.25       80.31       77.99       80.65       81.92       82.70       84.02    
        85.95       87.81       89.63       91.42       93.14       94.78       96.28       97.57       98.58       99.09    
        99.47       100.0       100.0    
   7    80.93       80.79       80.49       80.00       79.48       80.29       81.07       81.68       82.10       82.26    
        82.26       82.14       81.93       81.58       81.07       80.54       81.36       82.16       82.80       84.16    
        86.20       88.17       90.09       91.96       93.80       95.59       97.26       98.71       100.0       100.0    
        100.0      -99.00      -99.00    
   8    81.02       80.84       80.41       79.48       77.15       79.79       81.04       81.82       82.28       82.42    
        82.44       82.38       82.25       82.06       81.84       81.74       82.07       82.53       83.00       84.35    
        86.48       88.53       90.54       92.51       94.48       96.46       98.44       100.0      -99.00      -99.00    
       -99.00      -99.00      -99.00    
   9    81.24       81.10       80.80       80.32       79.81       80.64       81.45       82.10       82.50       82.64    
        82.69       82.68       82.63       82.55       82.48       82.49       82.65       82.87       83.10       84.53    
        86.77       88.90       90.97       93.02       95.10       97.32       100.0      -99.00      -99.00      -99.00    
       -99.00      -99.00      -99.00    
  10    81.57       81.49       81.34       81.16       81.10       81.48       81.99       82.46       82.78       82.92    
        82.98       83.01       83.01       83.01       83.02       83.06       83.16       83.18       82.85       84.70    
        87.10       89.29       91.39       93.46       95.54       97.70       100.0      -99.00      -99.00      -99.00    
       -99.00      -99.00      -99.00    
  11    81.94       81.91       81.87       81.84       81.91       82.17       82.51       82.84       83.07       83.20    
        83.29       83.34       83.39       83.44       83.50       83.59       83.71       83.84       84.01       85.39    
        87.58       89.71       91.79       93.84       95.87       97.93       100.0      -99.00      -99.00      -99.00    
       -99.00      -99.00      -99.00    
  12    82.30       82.32       82.34       82.39       82.51       82.72       83.00       83.22       83.36       83.47    
        83.58       83.67       83.75       83.83       83.93       84.06       84.23       84.45       84.77       86.02    
        88.08       90.14       92.18       94.19       96.16       98.10       100.0      -99.00      -99.00      -99.00    
       -99.00      -99.00      -99.00    
  13    82.61       82.67       82.74       82.84       82.98       83.18       83.38       83.51       83.61       83.71    
        83.82       83.94       84.07       84.19       84.31       84.47       84.69       84.96       85.33       86.54    
        88.52       90.54       92.55       94.54       96.46       98.28       100.0      -99.00      -99.00      -99.00    
       -99.00      -99.00      -99.00    
  14    82.82       82.99       83.09       83.20       83.34       83.52       83.63       83.73       83.83       83.93    
        84.05       84.18       84.32       84.49       84.65       84.82       85.06       85.36       85.75       86.94    
        88.89       90.89       92.91       94.92       96.83       98.53       100.0      -99.00      -99.00      -99.00    
       -99.00      -99.00      -99.00    
  15   -99.00       83.33       83.40       83.50       83.64       83.77       83.84       83.92       84.02       84.13    
        84.25       84.38       84.54       84.72       84.90       85.09       85.35       85.67       86.06       87.24    
        89.17       91.16       93.23       95.37       97.38       98.98       100.0      -99.00      -99.00      -99.00    
       -99.00      -99.00      -99.00    
  16   -99.00       83.56       83.63       83.73       83.86       83.93       84.00       84.09       84.19       84.30    
        84.41       84.55       84.72       84.89       85.07       85.29       85.56       85.89       86.29       87.44    
        89.34       91.31       93.45       95.90       98.33       100.0      -99.00      -99.00      -99.00      -99.00    
       -99.00      -99.00      -99.00    
  17   -99.00       83.70       83.79       83.90       84.01       84.07       84.14       84.23       84.32       84.44    
        84.55       84.67       84.82       84.99       85.18       85.41       85.69       86.03       86.42       87.55    
        89.37       91.24       93.32       96.42       100.0      -99.00      -99.00      -99.00      -99.00      -99.00    
       -99.00      -99.00      -99.00    
  18   -99.00      -99.00       83.91       84.00       84.10       84.17       84.25       84.34       84.42       84.51    
        84.59       84.70       84.86       85.03       85.23       85.47       85.76       86.10       86.49       87.58    
        89.30       90.91       92.14      -99.00      -99.00      -99.00      -99.00      -99.00      -99.00      -99.00    
       -99.00      -99.00      -99.00    
  19   -99.00      -99.00      -99.00      -99.00       84.18       84.25       84.32       84.39       84.45       84.53    
        84.60       84.66      -99.00      -99.00      -99.00      -99.00      -99.00      -99.00      -99.00      -99.00    
       -99.00      -99.00      -99.00      -99.00      -99.00      -99.00      -99.00      -99.00      -99.00      -99.00    
       -99.00      -99.00      -99.00    

 HEAD WILL BE SAVED ON UNIT   51 AT END OF TIME STEP   29, STRESS PERIOD    1

 DRAWDOWN WILL BE SAVED ON UNIT   52 AT END OF TIME STEP   29, STRESS PERIOD    1
1
  VOLUMETRIC BUDGET FOR ENTIRE MODEL AT END OF TIME STEP   29, STRESS PERIOD   1
  ------------------------------------------------------------------------------

     CUMULATIVE VOLUMES      L**3       RATES FOR THIS TIME STEP      L**3/T
     ------------------                 ------------------------

           IN:                                      IN:
           ---                                      ---
             STORAGE =     6656265.5000               STORAGE =        9778.2520
       CONSTANT HEAD =     3850588.7500         CONSTANT HEAD =       15866.7490
               WELLS =           0.0000                 WELLS =           0.0000
       RIVER LEAKAGE =     1261793.1250         RIVER LEAKAGE =        4435.0000
            RECHARGE =     1639996.1250              RECHARGE =        4920.0000

            TOTAL IN =    13408643.0000              TOTAL IN =       35000.0000

          OUT:                                     OUT:
          ----                                     ----
             STORAGE =     1546527.7500               STORAGE =           0.0000
       CONSTANT HEAD =        1674.0431         CONSTANT HEAD =           0.0000
               WELLS =    11666639.0000                 WELLS =       35000.0000
       RIVER LEAKAGE =      193794.4844         RIVER LEAKAGE =           0.0000
            RECHARGE =           0.0000              RECHARGE =           0.0000

           TOTAL OUT =    13408635.0000             TOTAL OUT =       35000.0000

            IN - OUT =           8.0000              IN - OUT =           0.0000

 PERCENT DISCREPANCY =           0.00     PERCENT DISCREPANCY =           0.00






         TIME SUMMARY AT END OF TIME STEP   29 IN STRESS PERIOD    1
                    SECONDS     MINUTES      HOURS       DAYS        YEARS
                    -----------------------------------------------------------
   TIME STEP LENGTH 9.60005E+06 1.60001E+05  2666.7      111.11     0.30421    
 STRESS PERIOD TIME 2.87999E+07 4.79999E+05  8000.0      333.33     0.91261    
         TOTAL TIME 2.87999E+07 4.79999E+05  8000.0      333.33     0.91261    
1
 
 SOLVING FOR HEAD 

 OUTPUT CONTROL FOR STRESS PERIOD    1   TIME STEP   30
    SAVE HEAD FOR ALL LAYERS
    SAVE DRAWDOWN FOR ALL LAYERS
    SAVE BUDGET
    PRINT HEAD FOR ALL LAYERS
    PRINT BUDGET
 UBDSV1 SAVING "         STORAGE" ON UNIT  53 AT TIME STEP 30, STRESS PERIOD   1
 UBDSV2 SAVING "   CONSTANT HEAD" ON UNIT  53 AT TIME STEP 30, STRESS PERIOD   1
 UBDSV1 SAVING "FLOW RIGHT FACE " ON UNIT  53 AT TIME STEP 30, STRESS PERIOD   1
 UBDSV1 SAVING "FLOW FRONT FACE " ON UNIT  53 AT TIME STEP 30, STRESS PERIOD   1
1
              HEAD IN LAYER   1 AT END OF TIME STEP  30 IN STRESS PERIOD    1
  ---------------------------------------------------------------------------

            1           2           3           4           5           6           7           8           9          10
           11          12          13          14          15          16          17          18          19          20
           21          22          23          24          25          26          27          28          29          30
           31          32          33
 ........................................................................................................................
   1   -99.00      -99.00      -99.00      -99.00      -99.00      -99.00      -99.00      -99.00      -99.00      -99.00    
       -99.00      -99.00       79.68       79.80       79.97       80.20       80.53       80.99       81.58       82.25    
        82.95       83.66       85.25       87.51       89.51       91.26       92.78       94.08       95.15       95.99    
        96.59       96.94      -99.00    
   2   -99.00      -99.00       78.11       78.17       78.27       78.42       78.60       78.80       78.99       79.16    
        79.30       79.43       79.54       79.61       79.72       79.97       80.32       80.82       81.43       82.16    
        82.92       83.73       85.47       87.74       89.71       91.45       92.98       94.27       95.35       96.20    
        96.83       97.26       97.59    
   3   -99.00       77.97       78.03       78.09       78.20       78.36       78.56       78.77       78.98       79.16    
        79.29       79.33       79.29       79.28       79.33       79.55       79.95       80.50       81.16       82.02    
        82.82       84.16       86.18       88.21       90.11       91.83       93.36       94.67       95.75       96.59    
        97.22       97.66       97.90    
   4    77.86       77.89       77.90       77.94       78.04       78.23       78.47       78.73       78.97       79.17    
        79.25       79.19       79.07       78.95       78.87       78.92       79.43       80.07       80.69       81.78    
        83.23       84.94       86.84       88.78       90.65       92.37       93.92       95.26       96.35       97.18    
        97.79       98.22       98.43    
   5    77.80       77.78       77.73       77.70       77.77       78.01       78.34       78.68       78.97       79.18    
        79.21       79.12       78.94       78.68       78.26       77.83       78.75       79.65       80.37       81.67    
        83.56       85.47       87.43       89.38       91.28       93.06       94.68       96.07       97.18       97.96    
        98.53       98.98       99.14    
   6    77.74       77.67       77.52       77.34       77.29       77.67       78.17       78.64       79.03       79.24    
        79.27       79.17       78.96       78.54       77.65       75.38       78.09       79.41       80.24       81.69    
        83.83       85.91       87.97       90.01       91.99       93.89       95.63       97.13       98.31       98.91    
        99.37       100.0       100.0    
   7    77.73       77.59       77.30       76.83       76.34       77.19       78.01       78.66       79.14       79.35    
        79.40       79.33       79.16       78.87       78.41       77.93       78.80       79.65       80.35       81.84    
        84.12       86.33       88.50       90.65       92.76       94.83       96.78       98.48       100.0       100.0    
        100.0      -99.00      -99.00    
   8    77.82       77.65       77.23       76.32       74.02       76.70       77.99       78.83       79.34       79.52    
        79.58       79.57       79.49       79.34       79.17       79.12       79.51       80.02       80.55       82.05    
        84.42       86.74       89.02       91.28       93.55       95.86       98.17       100.0      -99.00      -99.00    
       -99.00      -99.00      -99.00    
   9    78.05       77.92       77.63       77.17       76.69       77.56       78.41       79.11       79.56       79.73    
        79.83       79.86       79.86       79.82       79.81       79.87       80.09       80.37       80.66       82.24    
        84.74       87.15       89.52       91.87       94.28       96.87       100.0      -99.00      -99.00      -99.00    
       -99.00      -99.00      -99.00    
  10    78.39       78.31       78.18       78.02       77.99       78.41       78.95       79.48       79.84       80.02    
        80.12       80.19       80.24       80.28       80.34       80.45       80.60       80.68       80.41       82.43    
        85.10       87.58       89.98       92.37       94.79       97.31       100.0      -99.00      -99.00      -99.00    
       -99.00      -99.00      -99.00    
  11    78.76       78.74       78.71       78.71       78.81       79.10       79.48       79.86       80.13       80.30    
        80.43       80.52       80.62       80.71       80.82       80.97       81.15       81.35       81.58       83.13    
        85.61       88.04       90.43       92.80       95.17       97.57       100.0      -99.00      -99.00      -99.00    
       -99.00      -99.00      -99.00    
  12    79.13       79.15       79.19       79.27       79.41       79.66       79.98       80.25       80.42       80.56    
        80.71       80.84       80.98       81.11       81.26       81.44       81.68       81.96       82.34       83.77    
        86.13       88.49       90.85       93.19       95.50       97.77       100.0      -99.00      -99.00      -99.00    
       -99.00      -99.00      -99.00    
  13    79.45       79.52       79.61       79.72       79.89       80.13       80.37       80.54       80.66       80.81    
        80.96       81.11       81.29       81.47       81.64       81.86       82.13       82.47       82.91       84.30    
        86.59       88.92       91.26       93.58       95.84       97.97       100.0      -99.00      -99.00      -99.00    
       -99.00      -99.00      -99.00    
  14    79.66       79.84       79.97       80.10       80.27       80.48       80.62       80.75       80.88       81.03    
        81.18       81.35       81.54       81.76       81.98       82.21       82.51       82.88       83.33       84.71    
        86.98       89.29       91.66       94.02       96.26       98.26       100.0      -99.00      -99.00      -99.00    
       -99.00      -99.00      -99.00    
  15   -99.00       80.20       80.28       80.41       80.57       80.74       80.83       80.95       81.07       81.22    
        81.38       81.56       81.76       81.99       82.23       82.48       82.80       83.19       83.65       85.02    
        87.26       89.59       92.02       94.53       96.91       98.80       100.0      -99.00      -99.00      -99.00    
       -99.00      -99.00      -99.00    
  16   -99.00       80.45       80.53       80.65       80.80       80.91       81.00       81.11       81.24       81.38    
        81.54       81.72       81.94       82.16       82.39       82.67       83.01       83.41       83.87       85.22    
        87.43       89.74       92.26       95.15       98.02       100.0      -99.00      -99.00      -99.00      -99.00    
       -99.00      -99.00      -99.00    
  17   -99.00       80.59       80.70       80.83       80.96       81.04       81.14       81.25       81.37       81.52    
        81.67       81.83       82.04       82.25       82.50       82.80       83.14       83.55       84.01       85.32    
        87.45       89.64       92.09       95.76       100.0      -99.00      -99.00      -99.00      -99.00      -99.00    
       -99.00      -99.00      -99.00    
  18   -99.00      -99.00       80.83       80.93       81.06       81.15       81.24       81.36       81.47       81.59    
        81.71       81.85       82.07       82.30       82.56       82.86       83.21       83.61       84.07       85.35    
        87.36       89.24       90.69      -99.00      -99.00      -99.00      -99.00      -99.00      -99.00      -99.00    
       -99.00      -99.00      -99.00    
  19   -99.00      -99.00      -99.00      -99.00       81.15       81.23       81.32       81.41       81.50       81.60    
        81.70       81.78      -99.00      -99.00      -99.00      -99.00      -99.00      -99.00      -99.00      -99.00    
       -99.00      -99.00      -99.00      -99.00      -99.00      -99.00      -99.00      -99.00      -99.00      -99.00    
       -99.00      -99.00      -99.00    

 HEAD WILL BE SAVED ON UNIT   51 AT END OF TIME STEP   30, STRESS PERIOD    1

 DRAWDOWN WILL BE SAVED ON UNIT   52 AT END OF TIME STEP   30, STRESS PERIOD    1
1
  VOLUMETRIC BUDGET FOR ENTIRE MODEL AT END OF TIME STEP   30, STRESS PERIOD   1
  ------------------------------------------------------------------------------

     CUMULATIVE VOLUMES      L**3       RATES FOR THIS TIME STEP      L**3/T
     ------------------                 ------------------------

           IN:                                      IN:
           ---                                      ---
             STORAGE =     7808012.0000               STORAGE =        6910.4419
       CONSTANT HEAD =     6973032.0000         CONSTANT HEAD =       18734.5586
               WELLS =           0.0000                 WELLS =           0.0000
       RIVER LEAKAGE =     2000963.7500         RIVER LEAKAGE =        4435.0000
            RECHARGE =     2460000.5000              RECHARGE =        4920.0000

            TOTAL IN =    19242008.0000              TOTAL IN =       35000.0000

          OUT:                                     OUT:
          ----                                     ----
             STORAGE =     1546527.7500               STORAGE =           0.0000
       CONSTANT HEAD =        1674.0431         CONSTANT HEAD =           0.0000
               WELLS =    17500004.0000                 WELLS =       35000.0000
       RIVER LEAKAGE =      193794.4844         RIVER LEAKAGE =           0.0000
            RECHARGE =           0.0000              RECHARGE =           0.0000

           TOTAL OUT =    19242000.0000             TOTAL OUT =       35000.0000

            IN - OUT =           8.0000              IN - OUT =           0.0000

 PERCENT DISCREPANCY =           0.00     PERCENT DISCREPANCY =           0.00






         TIME SUMMARY AT END OF TIME STEP   30 IN STRESS PERIOD    1
                    SECONDS     MINUTES      HOURS       DAYS        YEARS
                    -----------------------------------------------------------
   TIME STEP LENGTH 1.44001E+07 2.40001E+05  4000.0      166.67     0.45631    
 STRESS PERIOD TIME 4.32000E+07 7.20000E+05  12000.      500.00      1.3689    
         TOTAL TIME 4.32000E+07 7.20000E+05  12000.      500.00      1.3689    
1

 Run end date and time (yyyy/mm/dd hh:mm:ss): 2025/03/18 10:50:32
 Elapsed run time:  0.031 Seconds

